                                  MODFLOW-2005     
      U.S. GEOLOGICAL SURVEY MODULAR FINITE-DIFFERENCE GROUND-WATER FLOW MODEL
                            VERSION 1.12.00 2/3/2017

 LIST FILE: mf2005Unsteadyflow.list
                         UNIT    2

 OPENING mf2005Unsteadyflow.dis
 FILE TYPE:DIS   UNIT   11   STATUS:OLD    
 FORMAT:FORMATTED              ACCESS:SEQUENTIAL          

 OPENING mf2005Unsteadyflow.bas
 FILE TYPE:BAS6   UNIT   13   STATUS:OLD    
 FORMAT:FORMATTED              ACCESS:SEQUENTIAL          

 OPENING mf2005Unsteadyflow.lpf
 FILE TYPE:LPF   UNIT   15   STATUS:OLD    
 FORMAT:FORMATTED              ACCESS:SEQUENTIAL          

 OPENING mf2005Unsteadyflow.chd
 FILE TYPE:CHD   UNIT   24   STATUS:OLD    
 FORMAT:FORMATTED              ACCESS:SEQUENTIAL          

 OPENING mf2005Unsteadyflow.wel
 FILE TYPE:WEL   UNIT   20   STATUS:OLD    
 FORMAT:FORMATTED              ACCESS:SEQUENTIAL          

 OPENING mf2005Unsteadyflow.riv
 FILE TYPE:RIV   UNIT   18   STATUS:OLD    
 FORMAT:FORMATTED              ACCESS:SEQUENTIAL          

 OPENING mf2005Unsteadyflow.oc
 FILE TYPE:OC   UNIT   14   STATUS:OLD    
 FORMAT:FORMATTED              ACCESS:SEQUENTIAL          

 OPENING mf2005Unsteadyflow.pcg
 FILE TYPE:PCG   UNIT   27   STATUS:OLD    
 FORMAT:FORMATTED              ACCESS:SEQUENTIAL          

 OPENING mf2005Unsteadyflow.cbc
 FILE TYPE:DATA(BINARY)   UNIT    1   STATUS:REPLACE
 FORMAT:UNFORMATTED            ACCESS:STREAM              

 OPENING mf2005Unsteadyflow.hds
 FILE TYPE:DATA(BINARY)   UNIT   51   STATUS:REPLACE
 FORMAT:UNFORMATTED            ACCESS:STREAM              

 OPENING mf2005Unsteadyflow.ddn
 FILE TYPE:DATA(BINARY)   UNIT   52   STATUS:REPLACE
 FORMAT:UNFORMATTED            ACCESS:STREAM              

 BAS -- BASIC PACKAGE, VERSION 7, 5/2/2005 INPUT READ FROM UNIT   13
 
 MODFLOW was compiled using mixed precision
 Precision of REAL variables:           6
 Precision of DOUBLE PRECISION variables:          15

 DISCRETIZATION INPUT DATA READ FROM UNIT   11
 # DIS package for MODFLOW-2005 generated by Flopy 3.7.0.dev0
    1 LAYERS        20 ROWS        15 COLUMNS
    3 STRESS PERIOD(S) IN SIMULATION
 MODEL TIME UNIT IS DAYS
 MODEL LENGTH UNIT IS METERS
  Confining bed flag for each layer:
   0

                     DELR =   50.0000    

                     DELC =   50.0000    

 TOP ELEVATION OF LAYER 1 =   5.00000    

   MODEL LAYER BOTTOM EL. =  -50.0000     FOR LAYER   1


 STRESS PERIOD     LENGTH       TIME STEPS     MULTIPLIER FOR DELT    SS FLAG
 ----------------------------------------------------------------------------
        1         1.000000          1                    1.000         SS
        2         100.0000        100                    1.000         TR
        3         100.0000        100                    1.000         TR

 COMBINED STEADY-STATE AND TRANSIENT SIMULATION



 
 # BAS6 package for MODFLOW-2005 generated by Flopy 3.7.0.dev0                   
 THE FREE FORMAT OPTION HAS BEEN SELECTED



                     BOUNDARY ARRAY FOR LAYER   1
 READING ON UNIT   13 WITH FORMAT: (15I10)             

 AQUIFER HEAD WILL BE SET TO  -999.99     AT ALL NO-FLOW NODES (IBOUND=0).



                       INITIAL HEAD FOR LAYER   1
 READING ON UNIT   13 WITH FORMAT: (15E15.6)           
 # OC package for MODFLOW-2005 generated by Flopy 3.7.0.dev0

 OUTPUT CONTROL IS SPECIFIED ONLY AT TIME STEPS FOR WHICH OUTPUT IS DESIRED
 COMPACT CELL-BY-CELL BUDGET FILES WILL BE WRITTEN
 AUXILIARY DATA WILL BE SAVED IN CELL-BY-CELL BUDGET FILES
 HEAD PRINT FORMAT CODE IS   0    DRAWDOWN PRINT FORMAT CODE IS   0
 HEADS WILL BE SAVED ON UNIT   51    DRAWDOWNS WILL BE SAVED ON UNIT   52

 LPF -- LAYER-PROPERTY FLOW PACKAGE, VERSION 7, 5/2/2005
         INPUT READ FROM UNIT   15
 # LPF package for MODFLOW-2005 generated by Flopy 3.7.0.dev0
 CELL-BY-CELL FLOWS WILL BE SAVED ON UNIT    1
 HEAD AT CELLS THAT CONVERT TO DRY= -1.00000E+30
 No named parameters

   LAYER FLAGS:
 LAYER       LAYTYP        LAYAVG         CHANI        LAYVKA        LAYWET
 ---------------------------------------------------------------------------
    1             1             0     1.000E+00             0             0

   INTERPRETATION OF LAYER FLAGS:
                        INTERBLOCK     HORIZONTAL    DATA IN
         LAYER TYPE   TRANSMISSIVITY   ANISOTROPY   ARRAY VKA   WETTABILITY
 LAYER      (LAYTYP)      (LAYAVG)       (CHANI)      (LAYVKA)      (LAYWET)
 ---------------------------------------------------------------------------
    1   CONVERTIBLE      HARMONIC     1.000E+00    VERTICAL K  NON-WETTABLE

 WETTING CAPABILITY IS NOT ACTIVE IN ANY LAYER



              HYD. COND. ALONG ROWS FOR LAYER   1
 READING ON UNIT   15 WITH FORMAT: (15E15.6)           

      VERTICAL HYD. COND. =   1.00000     FOR LAYER   1

         SPECIFIC STORAGE =  1.000000E-04 FOR LAYER   1

           SPECIFIC YIELD =  0.100000     FOR LAYER   1

 WEL -- WELL PACKAGE, VERSION 7, 5/2/2005 INPUT READ FROM UNIT   20
 # WEL package for MODFLOW-2005 generated by Flopy 3.7.0.dev0
 No named parameters
 MAXIMUM OF      3 ACTIVE WELLS AT ONE TIME


     0 Well parameters

 RIV -- RIVER PACKAGE, VERSION 7, 5/2/2005 INPUT READ FROM UNIT   18
 # RIV package for MODFLOW-2005 generated by Flopy 3.7.0.dev0
 No named parameters
 MAXIMUM OF     15 ACTIVE RIVER REACHES AT ONE TIME


     0 River parameters

 CHD -- TIME-VARIANT SPECIFIED-HEAD OPTION, VERSION 7, 5/2/2005
 INPUT READ FROM UNIT   24
 # CHD package for MODFLOW-2005 generated by Flopy 3.7.0.dev0
 No named parameters
 MAXIMUM OF     15 TIME-VARIANT SPECIFIED-HEAD CELLS AT ONE TIME


     0 TIME-VARIANT SPECIFIED-HEAD PARAMETERS

 PCG -- CONJUGATE-GRADIENT SOLUTION PACKAGE, VERSION 7, 5/2/2005
 # PCG package for MODFLOW-2005 generated by Flopy 3.7.0.dev0
 MAXIMUM OF     50 CALLS OF SOLUTION ROUTINE
 MAXIMUM OF     30 INTERNAL ITERATIONS PER CALL TO SOLUTION ROUTINE
 MATRIX PRECONDITIONING TYPE :    1



                                    SOLUTION BY THE CONJUGATE-GRADIENT METHOD
                                   -------------------------------------------
                    MAXIMUM NUMBER OF CALLS TO PCG ROUTINE =       50
                        MAXIMUM ITERATIONS PER CALL TO PCG =       30
                               MATRIX PRECONDITIONING TYPE =        1
        RELAXATION FACTOR (ONLY USED WITH PRECOND. TYPE 1) =    0.10000E+01
 PARAMETER OF POLYNOMIAL PRECOND. = 2 (2) OR IS CALCULATED :        0
                         HEAD CHANGE CRITERION FOR CLOSURE =    0.10000E-04
                     RESIDUAL CHANGE CRITERION FOR CLOSURE =    0.10000E-04
            PCG HEAD AND RESIDUAL CHANGE PRINTOUT INTERVAL =      999
     PRINTING FROM SOLVER IS LIMITED(1) OR SUPPRESSED (>1) =        3
                            STEADY-STATE DAMPING PARAMETER =    0.10000E+01
                               TRANSIENT DAMPING PARAMETER =    0.10000E+01
1
                            STRESS PERIOD NO.    1, LENGTH =   1.000000    
                            -----------------------------------------------

                              NUMBER OF TIME STEPS =     1

                               MULTIPLIER FOR DELT =     1.000

                            INITIAL TIME STEP SIZE =   1.000000    

 WELL NO.  LAYER   ROW   COL   STRESS RATE         
 --------------------------------------------------
      1      1      4      4      -500.0    
      2      1      6     12      -100.0    
      3      1     19      6       600.0    

      3 WELLS

 REACH NO.  LAYER   ROW   COL     STAGE      CONDUCTANCE     BOTTOM EL.         
 -------------------------------------------------------------------------------
      1      1     15      1       1.000           2500.           0.000    
      2      1     15      2       1.000           2500.           0.000    
      3      1     15      3       1.000           2500.           0.000    
      4      1     15      4       1.000           2500.           0.000    
      5      1     15      5       1.000           2500.           0.000    
      6      1     15      6       1.000           2500.           0.000    
      7      1     15      7       1.000           2500.           0.000    
      8      1     15      8       1.000           2500.           0.000    
      9      1     15      9       1.000           2500.           0.000    
     10      1     15     10       1.000           2500.           0.000    
     11      1     15     11       1.000           2500.           0.000    
     12      1     15     12       1.000           2500.           0.000    
     13      1     15     13       1.000           2500.           0.000    
     14      1     15     14       1.000           2500.           0.000    
     15      1     15     15       1.000           2500.           0.000    

     15 RIVER REACHES

 CHD NO.   LAYER   ROW   COL    START HEAD        END HEAD         
 ------------------------------------------------------------------
      1      1      1      1       3.000           3.000    
      2      1      1      2       3.000           3.000    
      3      1      1      3       3.000           3.000    
      4      1      1      4       3.000           3.000    
      5      1      1      5       3.000           3.000    
      6      1      1      6       3.000           3.000    
      7      1      1      7       3.000           3.000    
      8      1      1      8       3.000           3.000    
      9      1      1      9       3.000           3.000    
     10      1      1     10       3.000           3.000    
     11      1      1     11       3.000           3.000    
     12      1      1     12       3.000           3.000    
     13      1      1     13       3.000           3.000    
     14      1      1     14       3.000           3.000    
     15      1      1     15       3.000           3.000    


     15 TIME-VARIANT SPECIFIED-HEAD CELLS
 
 SOLVING FOR HEAD 

 OUTPUT CONTROL FOR STRESS PERIOD    1   TIME STEP    1
    SAVE HEAD FOR ALL LAYERS
    SAVE DRAWDOWN FOR ALL LAYERS
    SAVE BUDGET
    PRINT HEAD FOR ALL LAYERS
    PRINT BUDGET
 UBDSV2 SAVING "   CONSTANT HEAD" ON UNIT   1 AT TIME STEP  1, STRESS PERIOD   1
 UBDSV1 SAVING "FLOW RIGHT FACE " ON UNIT   1 AT TIME STEP  1, STRESS PERIOD   1
 UBDSV1 SAVING "FLOW FRONT FACE " ON UNIT   1 AT TIME STEP  1, STRESS PERIOD   1
1
              HEAD IN LAYER   1 AT END OF TIME STEP   1 IN STRESS PERIOD    1
  ---------------------------------------------------------------------------

            1           2           3           4           5           6           7           8           9          10
           11          12          13          14          15
 ........................................................................................................................
   1    3.000       3.000       3.000       3.000       3.000       3.000       3.000       3.000       3.000       3.000    
        3.000       3.000       3.000       3.000       3.000    
   2    2.109       2.013       1.846       1.722       1.931       2.196       2.417       2.588       2.680       2.710    
        2.728       2.741       2.751       2.759       2.763    
   3    1.299       1.078      0.6204      6.7310E-02  0.7830       1.423       1.878       2.203       2.376       2.429    
        2.461       2.483       2.504       2.521       2.530    
   4   0.7011      0.3645     -0.5431      -2.987     -0.3244      0.8215       1.459       1.883       2.102       2.167    
        2.202       2.225       2.260       2.289       2.305    
   5   0.4340      0.2070     -0.2547     -0.7941     -1.4695E-02  0.7072       1.247       1.654       1.872       1.933    
        1.955       1.953       2.020       2.070       2.094    
   6   0.3927      0.2814      0.1043      1.4389E-02  0.3391      0.7666       1.163       1.500       1.690       1.738    
        1.729       1.611       1.796       1.875       1.907    
   7   0.4624      0.4208      0.3737      0.3991      0.5853      0.8539       1.136       1.398       1.553       1.598    
        1.614       1.610       1.677       1.727       1.752    
   8   0.5736      0.5654      0.5693      0.6207      0.7473      0.9265       1.126       1.324       1.447       1.490    
        1.517       1.537       1.573       1.604       1.621    
   9   0.6928      0.6974      0.7168      0.7663      0.8557      0.9778       1.118       1.264       1.359       1.397    
        1.426       1.450       1.475       1.495       1.507    
  10   0.8071      0.8145      0.8338      0.8714      0.9311       1.010       1.104       1.207       1.280       1.312    
        1.339       1.362       1.381       1.395       1.403    
  11   0.9137      0.9194      0.9322      0.9543      0.9867       1.029       1.080       1.143       1.205       1.234    
        1.258       1.276       1.291       1.302       1.307    
  12   0.9741      0.9779      0.9857      0.9978       1.014       1.035       1.059       1.087       1.131       1.161    
        1.181       1.195       1.206       1.213       1.217    
  13   0.9905      0.9934      0.9992       1.008       1.019       1.033       1.048       1.063       1.081       1.098    
        1.109       1.118       1.124       1.128       1.130    
  14    1.004       1.006       1.010       1.015       1.022       1.029       1.036       1.042       1.046       1.051    
        1.055       1.057       1.059       1.061       1.061    
  15    1.015       1.017       1.019       1.022       1.025       1.026       1.025       1.022       1.019       1.017    
        1.015       1.013       1.012       1.011       1.011    
  16    1.177       1.188       1.211       1.241       1.271       1.285       1.263       1.223       1.182       1.146    
        1.117       1.096       1.081       1.071       1.066    
  17    1.326       1.349       1.394       1.460       1.533       1.577       1.516       1.425       1.339       1.267    
        1.213       1.172       1.144       1.126       1.117    
  18    1.452       1.486       1.557       1.669       1.822       1.972       1.798       1.621       1.479       1.373    
        1.293       1.236       1.196       1.171       1.159    
  19    1.543       1.586       1.679       1.837       2.110       2.684       2.083       1.779       1.586       1.450    
        1.352       1.282       1.234       1.204       1.189    
  20    1.590       1.637       1.735       1.889       2.094       2.281       2.063       1.826       1.633       1.489    
        1.382       1.306       1.254       1.221       1.205    

 HEAD WILL BE SAVED ON UNIT   51 AT END OF TIME STEP    1, STRESS PERIOD    1

 DRAWDOWN WILL BE SAVED ON UNIT   52 AT END OF TIME STEP    1, STRESS PERIOD    1
1
  VOLUMETRIC BUDGET FOR ENTIRE MODEL AT END OF TIME STEP    1, STRESS PERIOD   1
  ------------------------------------------------------------------------------

     CUMULATIVE VOLUMES      L**3       RATES FOR THIS TIME STEP      L**3/T
     ------------------                 ------------------------

           IN:                                      IN:
           ---                                      ---
             STORAGE =           0.0000               STORAGE =           0.0000
       CONSTANT HEAD =         673.0626         CONSTANT HEAD =         673.0626
               WELLS =         600.0000                 WELLS =         600.0000
       RIVER LEAKAGE =           0.0000         RIVER LEAKAGE =           0.0000

            TOTAL IN =        1273.0625              TOTAL IN =        1273.0625

          OUT:                                     OUT:
          ----                                     ----
             STORAGE =           0.0000               STORAGE =           0.0000
       CONSTANT HEAD =           0.0000         CONSTANT HEAD =           0.0000
               WELLS =         600.0000                 WELLS =         600.0000
       RIVER LEAKAGE =         673.0626         RIVER LEAKAGE =         673.0626

           TOTAL OUT =        1273.0625             TOTAL OUT =        1273.0625

            IN - OUT =           0.0000              IN - OUT =           0.0000

 PERCENT DISCREPANCY =           0.00     PERCENT DISCREPANCY =           0.00






         TIME SUMMARY AT END OF TIME STEP    1 IN STRESS PERIOD    1
                    SECONDS     MINUTES      HOURS       DAYS        YEARS
                    -----------------------------------------------------------
   TIME STEP LENGTH  86400.      1440.0      24.000      1.0000     2.73785E-03
 STRESS PERIOD TIME  86400.      1440.0      24.000      1.0000     2.73785E-03
         TOTAL TIME  86400.      1440.0      24.000      1.0000     2.73785E-03
1
1
                            STRESS PERIOD NO.    2, LENGTH =   100.0000    
                            -----------------------------------------------

                              NUMBER OF TIME STEPS =   100

                               MULTIPLIER FOR DELT =     1.000

                            INITIAL TIME STEP SIZE =   1.000000    

 WELL NO.  LAYER   ROW   COL   STRESS RATE         
 --------------------------------------------------
      1      1      4      4      -200.0    
      2      1      6     12       200.0    
      3      1     19      6      -350.0    

      3 WELLS

 REACH NO.  LAYER   ROW   COL     STAGE      CONDUCTANCE     BOTTOM EL.         
 -------------------------------------------------------------------------------
      1      1     15      1       5.000           2500.           0.000    
      2      1     15      2       5.000           2500.           0.000    
      3      1     15      3       5.000           2500.           0.000    
      4      1     15      4       5.000           2500.           0.000    
      5      1     15      5       5.000           2500.           0.000    
      6      1     15      6       5.000           2500.           0.000    
      7      1     15      7       5.000           2500.           0.000    
      8      1     15      8       5.000           2500.           0.000    
      9      1     15      9       5.000           2500.           0.000    
     10      1     15     10       5.000           2500.           0.000    
     11      1     15     11       5.000           2500.           0.000    
     12      1     15     12       5.000           2500.           0.000    
     13      1     15     13       5.000           2500.           0.000    
     14      1     15     14       5.000           2500.           0.000    
     15      1     15     15       5.000           2500.           0.000    

     15 RIVER REACHES

 CHD NO.   LAYER   ROW   COL    START HEAD        END HEAD         
 ------------------------------------------------------------------
      1      1      1      1       3.000           6.000    
      2      1      1      2       3.000           6.000    
      3      1      1      3       3.000           6.000    
      4      1      1      4       3.000           6.000    
      5      1      1      5       3.000           6.000    
      6      1      1      6       3.000           6.000    
      7      1      1      7       3.000           6.000    
      8      1      1      8       3.000           6.000    
      9      1      1      9       3.000           6.000    
     10      1      1     10       3.000           6.000    
     11      1      1     11       3.000           6.000    
     12      1      1     12       3.000           6.000    
     13      1      1     13       3.000           6.000    
     14      1      1     14       3.000           6.000    
     15      1      1     15       3.000           6.000    


     15 TIME-VARIANT SPECIFIED-HEAD CELLS
 
 SOLVING FOR HEAD 

 OUTPUT CONTROL FOR STRESS PERIOD    2   TIME STEP    1
    SAVE HEAD FOR ALL LAYERS
    SAVE DRAWDOWN FOR ALL LAYERS
    SAVE BUDGET
    PRINT HEAD FOR ALL LAYERS
    PRINT BUDGET
 UBDSV1 SAVING "         STORAGE" ON UNIT   1 AT TIME STEP  1, STRESS PERIOD   2
 UBDSV2 SAVING "   CONSTANT HEAD" ON UNIT   1 AT TIME STEP  1, STRESS PERIOD   2
 UBDSV1 SAVING "FLOW RIGHT FACE " ON UNIT   1 AT TIME STEP  1, STRESS PERIOD   2
 UBDSV1 SAVING "FLOW FRONT FACE " ON UNIT   1 AT TIME STEP  1, STRESS PERIOD   2
1
              HEAD IN LAYER   1 AT END OF TIME STEP   1 IN STRESS PERIOD    2
  ---------------------------------------------------------------------------

            1           2           3           4           5           6           7           8           9          10
           11          12          13          14          15
 ........................................................................................................................
   1    3.030       3.030       3.030       3.030       3.030       3.030       3.030       3.030       3.030       3.030    
        3.030       3.030       3.030       3.030       3.030    
   2    2.113       2.018       1.853       1.736       1.939       2.202       2.422       2.593       2.689       2.719    
        2.738       2.751       2.761       2.769       2.773    
   3    1.301       1.082      0.6396      0.1488      0.8023       1.427       1.879       2.205       2.379       2.433    
        2.467       2.491       2.510       2.525       2.534    
   4   0.7026      0.3744     -0.4617      -2.267     -0.2432      0.8314       1.461       1.884       2.105       2.172    
        2.215       2.247       2.272       2.295       2.308    
   5   0.4346      0.2104     -0.2360     -0.7126      3.9405E-03  0.7105       1.248       1.654       1.876       1.945    
        1.991       2.042       2.056       2.082       2.099    
   6   0.3929      0.2822      0.1076      2.4177E-02  0.3424      0.7674       1.163       1.501       1.695       1.759    
        1.819       2.019       1.885       1.897       1.914    
   7   0.4625      0.4210      0.3742      0.4003      0.5859      0.8541       1.136       1.399       1.557       1.611    
        1.650       1.700       1.713       1.739       1.757    
   8   0.5738      0.5656      0.5695      0.6210      0.7475      0.9267       1.126       1.325       1.450       1.496    
        1.530       1.560       1.586       1.610       1.624    
   9   0.6939      0.6986      0.7179      0.7674      0.8568      0.9789       1.119       1.266       1.363       1.402    
        1.433       1.459       1.482       1.501       1.511    
  10   0.8147      0.8221      0.8415      0.8791      0.9388       1.018       1.112       1.215       1.293       1.326    
        1.354       1.376       1.395       1.409       1.416    
  11   0.9655      0.9712      0.9840       1.006       1.038       1.080       1.131       1.192       1.252       1.279    
        1.302       1.320       1.335       1.345       1.350    
  12    1.205       1.208       1.216       1.228       1.244       1.264       1.285       1.301       1.292       1.308    
        1.325       1.339       1.349       1.356       1.360    
  13    1.504       1.507       1.513       1.522       1.533       1.546       1.559       1.571       1.564       1.575    
        1.586       1.594       1.600       1.604       1.606    
  14    2.293       2.295       2.299       2.305       2.311       2.318       2.327       2.341       2.387       2.401    
        2.406       2.409       2.411       2.413       2.413    
  15    4.271       4.272       4.274       4.276       4.279       4.280       4.279       4.278       4.278       4.277    
        4.275       4.273       4.272       4.272       4.271    
  16    2.459       2.469       2.489       2.514       2.536       2.544       2.528       2.497       2.462       2.429    
        2.402       2.381       2.367       2.357       2.353    
  17    1.823       1.844       1.883       1.934       1.982       1.998       1.966       1.900       1.828       1.764    
        1.712       1.672       1.644       1.627       1.618    
  18    1.643       1.673       1.732       1.812       1.888       1.904       1.865       1.764       1.655       1.560    
        1.486       1.430       1.391       1.367       1.355    
  19    1.617       1.655       1.729       1.831       1.918       1.801       1.890       1.772       1.636       1.519    
        1.427       1.360       1.313       1.283       1.269    
  20    1.625       1.666       1.747       1.857       1.964       1.992       1.934       1.794       1.646       1.518    
        1.418       1.345       1.293       1.261       1.245    

 HEAD WILL BE SAVED ON UNIT   51 AT END OF TIME STEP    1, STRESS PERIOD    2

 DRAWDOWN WILL BE SAVED ON UNIT   52 AT END OF TIME STEP    1, STRESS PERIOD    2
1
  VOLUMETRIC BUDGET FOR ENTIRE MODEL AT END OF TIME STEP    1, STRESS PERIOD   2
  ------------------------------------------------------------------------------

     CUMULATIVE VOLUMES      L**3       RATES FOR THIS TIME STEP      L**3/T
     ------------------                 ------------------------

           IN:                                      IN:
           ---                                      ---
             STORAGE =         490.0226               STORAGE =         490.0226
       CONSTANT HEAD =        1378.4919         CONSTANT HEAD =         705.4294
               WELLS =         800.0000                 WELLS =         200.0000
       RIVER LEAKAGE =       27181.0918         RIVER LEAKAGE =       27181.0918

            TOTAL IN =       29849.6055              TOTAL IN =       28576.5430

          OUT:                                     OUT:
          ----                                     ----
             STORAGE =       28026.5469               STORAGE =       28026.5469
       CONSTANT HEAD =           0.0000         CONSTANT HEAD =           0.0000
               WELLS =        1150.0000                 WELLS =         550.0000
       RIVER LEAKAGE =         673.0626         RIVER LEAKAGE =           0.0000

           TOTAL OUT =       29849.6094             TOTAL OUT =       28576.5469

            IN - OUT =      -3.9062E-03              IN - OUT =      -3.9062E-03

 PERCENT DISCREPANCY =          -0.00     PERCENT DISCREPANCY =          -0.00






         TIME SUMMARY AT END OF TIME STEP    1 IN STRESS PERIOD    2
                    SECONDS     MINUTES      HOURS       DAYS        YEARS
                    -----------------------------------------------------------
   TIME STEP LENGTH  86400.      1440.0      24.000      1.0000     2.73785E-03
 STRESS PERIOD TIME  86400.      1440.0      24.000      1.0000     2.73785E-03
         TOTAL TIME 1.72800E+05  2880.0      48.000      2.0000     5.47570E-03
1
 
 SOLVING FOR HEAD 

 OUTPUT CONTROL FOR STRESS PERIOD    2   TIME STEP    2
    SAVE HEAD FOR ALL LAYERS
    SAVE DRAWDOWN FOR ALL LAYERS
    SAVE BUDGET
    PRINT HEAD FOR ALL LAYERS
    PRINT BUDGET
 UBDSV1 SAVING "         STORAGE" ON UNIT   1 AT TIME STEP  2, STRESS PERIOD   2
 UBDSV2 SAVING "   CONSTANT HEAD" ON UNIT   1 AT TIME STEP  2, STRESS PERIOD   2
 UBDSV1 SAVING "FLOW RIGHT FACE " ON UNIT   1 AT TIME STEP  2, STRESS PERIOD   2
 UBDSV1 SAVING "FLOW FRONT FACE " ON UNIT   1 AT TIME STEP  2, STRESS PERIOD   2
1
              HEAD IN LAYER   1 AT END OF TIME STEP   2 IN STRESS PERIOD    2
  ---------------------------------------------------------------------------

            1           2           3           4           5           6           7           8           9          10
           11          12          13          14          15
 ........................................................................................................................
   1    3.060       3.060       3.060       3.060       3.060       3.060       3.060       3.060       3.060       3.060    
        3.060       3.060       3.060       3.060       3.060    
   2    2.122       2.028       1.869       1.762       1.955       2.212       2.431       2.603       2.703       2.735    
        2.755       2.768       2.778       2.785       2.788    
   3    1.304       1.092      0.6763      0.2536      0.8389       1.438       1.883       2.208       2.386       2.443    
        2.480       2.506       2.524       2.536       2.542    
   4   0.7067      0.3939     -0.3575      -1.813     -0.1393      0.8508       1.465       1.886       2.112       2.185    
        2.236       2.277       2.294       2.307       2.316    
   5   0.4367      0.2188     -0.2008     -0.6084      3.9099E-02  0.7189       1.250       1.657       1.886       1.966    
        2.037       2.121       2.102       2.103       2.110    
   6   0.3936      0.2846      0.1159      4.3267E-02  0.3507      0.7700       1.164       1.504       1.707       1.789    
        1.897       2.191       1.964       1.927       1.928    
   7   0.4628      0.4217      0.3760      0.4037      0.5877      0.8549       1.137       1.401       1.567       1.632    
        1.697       1.779       1.760       1.761       1.769    
   8   0.5746      0.5664      0.5706      0.6223      0.7486      0.9276       1.128       1.328       1.458       1.510    
        1.554       1.593       1.610       1.625       1.635    
   9   0.6981      0.7028      0.7221      0.7716      0.8611      0.9831       1.124       1.272       1.377       1.419    
        1.453       1.482       1.503       1.518       1.527    
  10   0.8371      0.8445      0.8639      0.9015      0.9611       1.040       1.134       1.240       1.330       1.364    
        1.392       1.415       1.433       1.446       1.453    
  11    1.078       1.084       1.097       1.119       1.151       1.192       1.240       1.297       1.354       1.376    
        1.397       1.414       1.428       1.438       1.444    
  12    1.549       1.553       1.561       1.572       1.588       1.605       1.620       1.621       1.551       1.547    
        1.558       1.570       1.580       1.587       1.591    
  13    2.033       2.036       2.042       2.050       2.060       2.072       2.084       2.091       2.078       2.084    
        2.092       2.100       2.105       2.109       2.111    
  14    3.011       3.013       3.017       3.022       3.028       3.035       3.044       3.064       3.132       3.152    
        3.159       3.162       3.164       3.165       3.166    
  15    4.631       4.632       4.634       4.636       4.637       4.638       4.638       4.638       4.641       4.641    
        4.639       4.638       4.637       4.636       4.636    
  16    3.161       3.169       3.184       3.201       3.213       3.215       3.205       3.185       3.159       3.132    
        3.108       3.089       3.075       3.066       3.062    
  17    2.316       2.332       2.360       2.391       2.411       2.408       2.395       2.358       2.306       2.254    
        2.208       2.172       2.145       2.128       2.120    
  18    1.917       1.940       1.980       2.022       2.036       1.991       2.013       1.974       1.903       1.829    
        1.764       1.713       1.676       1.652       1.641    
  19    1.758       1.786       1.834       1.880       1.859       1.589       1.831       1.822       1.742       1.652    
        1.573       1.511       1.466       1.438       1.424    
  20    1.708       1.739       1.793       1.851       1.873       1.823       1.843       1.788       1.692       1.593    
        1.506       1.439       1.390       1.359       1.343    

 HEAD WILL BE SAVED ON UNIT   51 AT END OF TIME STEP    2, STRESS PERIOD    2

 DRAWDOWN WILL BE SAVED ON UNIT   52 AT END OF TIME STEP    2, STRESS PERIOD    2
1
  VOLUMETRIC BUDGET FOR ENTIRE MODEL AT END OF TIME STEP    2, STRESS PERIOD   2
  ------------------------------------------------------------------------------

     CUMULATIVE VOLUMES      L**3       RATES FOR THIS TIME STEP      L**3/T
     ------------------                 ------------------------

           IN:                                      IN:
           ---                                      ---
             STORAGE =         663.1719               STORAGE =         173.1492
       CONSTANT HEAD =        2107.0723         CONSTANT HEAD =         728.5803
               WELLS =        1000.0000                 WELLS =         200.0000
       RIVER LEAKAGE =       40803.0391         RIVER LEAKAGE =       13621.9482

            TOTAL IN =       44573.2812              TOTAL IN =       14723.6777

          OUT:                                     OUT:
          ----                                     ----
             STORAGE =       42200.2266               STORAGE =       14173.6797
       CONSTANT HEAD =           0.0000         CONSTANT HEAD =           0.0000
               WELLS =        1700.0000                 WELLS =         550.0000
       RIVER LEAKAGE =         673.0626         RIVER LEAKAGE =           0.0000

           TOTAL OUT =       44573.2891             TOTAL OUT =       14723.6797

            IN - OUT =      -7.8125E-03              IN - OUT =      -1.9531E-03

 PERCENT DISCREPANCY =          -0.00     PERCENT DISCREPANCY =          -0.00






         TIME SUMMARY AT END OF TIME STEP    2 IN STRESS PERIOD    2
                    SECONDS     MINUTES      HOURS       DAYS        YEARS
                    -----------------------------------------------------------
   TIME STEP LENGTH  86400.      1440.0      24.000      1.0000     2.73785E-03
 STRESS PERIOD TIME 1.72800E+05  2880.0      48.000      2.0000     5.47570E-03
         TOTAL TIME 2.59200E+05  4320.0      72.000      3.0000     8.21355E-03
1
 
 SOLVING FOR HEAD 

 OUTPUT CONTROL FOR STRESS PERIOD    2   TIME STEP    3
    SAVE HEAD FOR ALL LAYERS
    SAVE DRAWDOWN FOR ALL LAYERS
    SAVE BUDGET
    PRINT HEAD FOR ALL LAYERS
    PRINT BUDGET
 UBDSV1 SAVING "         STORAGE" ON UNIT   1 AT TIME STEP  3, STRESS PERIOD   2
 UBDSV2 SAVING "   CONSTANT HEAD" ON UNIT   1 AT TIME STEP  3, STRESS PERIOD   2
 UBDSV1 SAVING "FLOW RIGHT FACE " ON UNIT   1 AT TIME STEP  3, STRESS PERIOD   2
 UBDSV1 SAVING "FLOW FRONT FACE " ON UNIT   1 AT TIME STEP  3, STRESS PERIOD   2
1
              HEAD IN LAYER   1 AT END OF TIME STEP   3 IN STRESS PERIOD    2
  ---------------------------------------------------------------------------

            1           2           3           4           5           6           7           8           9          10
           11          12          13          14          15
 ........................................................................................................................
   1    3.090       3.090       3.090       3.090       3.090       3.090       3.090       3.090       3.090       3.090    
        3.090       3.090       3.090       3.090       3.090    
   2    2.134       2.043       1.893       1.797       1.978       2.227       2.443       2.616       2.721       2.754    
        2.775       2.790       2.799       2.804       2.807    
   3    1.311       1.109      0.7241      0.3589      0.8867       1.454       1.889       2.215       2.398       2.458    
        2.499       2.527       2.542       2.551       2.556    
   4   0.7139      0.4203     -0.2534      -1.510     -3.5441E-02  0.8771       1.471       1.891       2.122       2.202    
        2.263       2.310       2.321       2.326       2.329    
   5   0.4408      0.2324     -0.1553     -0.5045      8.4591E-02  0.7326       1.254       1.663       1.899       1.991    
        2.081       2.181       2.147       2.129       2.127    
   6   0.3952      0.2893      0.1293      6.8937E-02  0.3642      0.7749       1.167       1.510       1.723       1.820    
        1.958       2.284       2.025       1.960       1.948    
   7   0.4637      0.4234      0.3796      0.4095      0.5913      0.8568       1.138       1.407       1.582       1.659    
        1.743       1.842       1.806       1.790       1.787    
   8   0.5766      0.5686      0.5732      0.6252      0.7512      0.9300       1.131       1.334       1.475       1.533    
        1.586       1.632       1.643       1.649       1.654    
   9   0.7072      0.7119      0.7313      0.7809      0.8702      0.9924       1.134       1.287       1.405       1.451    
        1.488       1.519       1.538       1.550       1.556    
  10   0.8772      0.8847      0.9040      0.9416       1.001       1.080       1.174       1.284       1.391       1.427    
        1.455       1.478       1.495       1.507       1.513    
  11    1.235       1.241       1.254       1.276       1.307       1.347       1.393       1.444       1.495       1.511    
        1.528       1.545       1.558       1.568       1.572    
  12    1.906       1.909       1.916       1.928       1.942       1.957       1.966       1.952       1.834       1.810    
        1.815       1.825       1.834       1.841       1.844    
  13    2.463       2.466       2.471       2.479       2.488       2.499       2.507       2.510       2.498       2.499    
        2.505       2.511       2.517       2.520       2.522    
  14    3.416       3.418       3.421       3.426       3.431       3.437       3.447       3.468       3.540       3.561    
        3.569       3.572       3.574       3.576       3.576    
  15    4.722       4.723       4.724       4.725       4.726       4.726       4.727       4.728       4.732       4.732    
        4.731       4.730       4.729       4.728       4.728    
  16    3.544       3.549       3.558       3.567       3.570       3.567       3.563       3.551       3.535       3.515    
        3.495       3.478       3.465       3.457       3.453    
  17    2.697       2.707       2.723       2.736       2.735       2.719       2.719       2.704       2.672       2.633    
        2.595       2.563       2.539       2.523       2.516    
  18    2.193       2.207       2.227       2.237       2.212       2.142       2.189       2.191       2.153       2.100    
        2.047       2.003       1.969       1.947       1.936    
  19    1.936       1.953       1.976       1.978       1.899       1.585       1.872       1.921       1.885       1.823    
        1.759       1.705       1.665       1.638       1.624    
  20    1.834       1.852       1.879       1.892       1.860       1.774       1.830       1.830       1.780       1.710    
        1.640       1.582       1.537       1.508       1.493    

 HEAD WILL BE SAVED ON UNIT   51 AT END OF TIME STEP    3, STRESS PERIOD    2

 DRAWDOWN WILL BE SAVED ON UNIT   52 AT END OF TIME STEP    3, STRESS PERIOD    2
1
  VOLUMETRIC BUDGET FOR ENTIRE MODEL AT END OF TIME STEP    3, STRESS PERIOD   2
  ------------------------------------------------------------------------------

     CUMULATIVE VOLUMES      L**3       RATES FOR THIS TIME STEP      L**3/T
     ------------------                 ------------------------

           IN:                                      IN:
           ---                                      ---
             STORAGE =         683.3799               STORAGE =          20.2081
       CONSTANT HEAD =        2852.1816         CONSTANT HEAD =         745.1093
               WELLS =        1200.0000                 WELLS =         200.0000
       RIVER LEAKAGE =       51024.7148         RIVER LEAKAGE =       10221.6768

            TOTAL IN =       55760.2773              TOTAL IN =       11186.9941

          OUT:                                     OUT:
          ----                                     ----
             STORAGE =       52837.2188               STORAGE =       10636.9941
       CONSTANT HEAD =           0.0000         CONSTANT HEAD =           0.0000
               WELLS =        2250.0000                 WELLS =         550.0000
       RIVER LEAKAGE =         673.0626         RIVER LEAKAGE =           0.0000

           TOTAL OUT =       55760.2812             TOTAL OUT =       11186.9941

            IN - OUT =      -3.9062E-03              IN - OUT =           0.0000

 PERCENT DISCREPANCY =          -0.00     PERCENT DISCREPANCY =           0.00






         TIME SUMMARY AT END OF TIME STEP    3 IN STRESS PERIOD    2
                    SECONDS     MINUTES      HOURS       DAYS        YEARS
                    -----------------------------------------------------------
   TIME STEP LENGTH  86400.      1440.0      24.000      1.0000     2.73785E-03
 STRESS PERIOD TIME 2.59200E+05  4320.0      72.000      3.0000     8.21355E-03
         TOTAL TIME 3.45600E+05  5760.0      96.000      4.0000     1.09514E-02
1
 
 SOLVING FOR HEAD 

 OUTPUT CONTROL FOR STRESS PERIOD    2   TIME STEP    4
    SAVE HEAD FOR ALL LAYERS
    SAVE DRAWDOWN FOR ALL LAYERS
    SAVE BUDGET
    PRINT HEAD FOR ALL LAYERS
    PRINT BUDGET
 UBDSV1 SAVING "         STORAGE" ON UNIT   1 AT TIME STEP  4, STRESS PERIOD   2
 UBDSV2 SAVING "   CONSTANT HEAD" ON UNIT   1 AT TIME STEP  4, STRESS PERIOD   2
 UBDSV1 SAVING "FLOW RIGHT FACE " ON UNIT   1 AT TIME STEP  4, STRESS PERIOD   2
 UBDSV1 SAVING "FLOW FRONT FACE " ON UNIT   1 AT TIME STEP  4, STRESS PERIOD   2
1
              HEAD IN LAYER   1 AT END OF TIME STEP   4 IN STRESS PERIOD    2
  ---------------------------------------------------------------------------

            1           2           3           4           5           6           7           8           9          10
           11          12          13          14          15
 ........................................................................................................................
   1    3.120       3.120       3.120       3.120       3.120       3.120       3.120       3.120       3.120       3.120    
        3.120       3.120       3.120       3.120       3.120    
   2    2.149       2.062       1.921       1.837       2.007       2.246       2.458       2.632       2.741       2.776    
        2.799       2.814       2.822       2.827       2.829    
   3    1.322       1.130      0.7777      0.4568      0.9402       1.475       1.900       2.224       2.413       2.476    
        2.521       2.551       2.565       2.571       2.573    
   4   0.7244      0.4511     -0.1572      -1.296      6.0477E-02  0.9078       1.482       1.899       2.137       2.222    
        2.291       2.342       2.349       2.348       2.347    
   5   0.4473      0.2505     -0.1047     -0.4087      0.1351      0.7508       1.261       1.671       1.916       2.017    
        2.120       2.230       2.187       2.158       2.148    
   6   0.3983      0.2966      0.1472      9.8653E-02  0.3821      0.7825       1.171       1.518       1.742       1.852    
        2.007       2.346       2.075       1.993       1.972    
   7   0.4655      0.4264      0.3854      0.4180      0.5972      0.8602       1.142       1.415       1.602       1.689    
        1.787       1.894       1.851       1.822       1.812    
   8   0.5806      0.5729      0.5781      0.6307      0.7562      0.9347       1.136       1.346       1.499       1.565    
        1.625       1.676       1.683       1.683       1.683    
   9   0.7225      0.7272      0.7468      0.7965      0.8858       1.008       1.151       1.310       1.445       1.496    
        1.537       1.570       1.587       1.596       1.600    
  10   0.9344      0.9418      0.9612      0.9987       1.058       1.137       1.231       1.346       1.472       1.509    
        1.538       1.561       1.577       1.588       1.593    
  11    1.417       1.422       1.435       1.457       1.487       1.526       1.568       1.613       1.654       1.665    
        1.679       1.694       1.706       1.715       1.719    
  12    2.229       2.232       2.239       2.249       2.262       2.274       2.278       2.252       2.102       2.062    
        2.061       2.069       2.077       2.083       2.086    
  13    2.799       2.801       2.806       2.813       2.822       2.830       2.835       2.834       2.822       2.818    
        2.821       2.826       2.831       2.834       2.836    
  14    3.674       3.675       3.678       3.682       3.686       3.692       3.700       3.720       3.789       3.809    
        3.816       3.819       3.821       3.822       3.823    
  15    4.769       4.769       4.770       4.770       4.770       4.771       4.771       4.773       4.777       4.778    
        4.777       4.776       4.776       4.775       4.775    
  16    3.776       3.779       3.782       3.784       3.780       3.774       3.773       3.769       3.760       3.746    
        3.731       3.717       3.706       3.698       3.694    
  17    2.981       2.985       2.990       2.988       2.972       2.950       2.957       2.957       2.941       2.915    
        2.886       2.860       2.839       2.824       2.817    
  18    2.440       2.446       2.449       2.436       2.386       2.304       2.364       2.390       2.378       2.344    
        2.304       2.267       2.238       2.218       2.208    
  19    2.126       2.132       2.133       2.105       1.994       1.662       1.967       2.049       2.045       2.008    
        1.960       1.916       1.880       1.856       1.844    
  20    1.986       1.993       1.997       1.977       1.910       1.807       1.880       1.916       1.901       1.857    
        1.805       1.757       1.718       1.692       1.678    

 HEAD WILL BE SAVED ON UNIT   51 AT END OF TIME STEP    4, STRESS PERIOD    2

 DRAWDOWN WILL BE SAVED ON UNIT   52 AT END OF TIME STEP    4, STRESS PERIOD    2
1
  VOLUMETRIC BUDGET FOR ENTIRE MODEL AT END OF TIME STEP    4, STRESS PERIOD   2
  ------------------------------------------------------------------------------

     CUMULATIVE VOLUMES      L**3       RATES FOR THIS TIME STEP      L**3/T
     ------------------                 ------------------------

           IN:                                      IN:
           ---                                      ---
             STORAGE =         683.3799               STORAGE =           0.0000
       CONSTANT HEAD =        3608.9866         CONSTANT HEAD =         756.8050
               WELLS =        1400.0000                 WELLS =         200.0000
       RIVER LEAKAGE =       59530.5352         RIVER LEAKAGE =        8505.8213

            TOTAL IN =       65222.9023              TOTAL IN =        9462.6260

          OUT:                                     OUT:
          ----                                     ----
             STORAGE =       61749.8438               STORAGE =        8912.6250
       CONSTANT HEAD =           0.0000         CONSTANT HEAD =           0.0000
               WELLS =        2800.0000                 WELLS =         550.0000
       RIVER LEAKAGE =         673.0626         RIVER LEAKAGE =           0.0000

           TOTAL OUT =       65222.9062             TOTAL OUT =        9462.6250

            IN - OUT =      -3.9062E-03              IN - OUT =       9.7656E-04

 PERCENT DISCREPANCY =          -0.00     PERCENT DISCREPANCY =           0.00






         TIME SUMMARY AT END OF TIME STEP    4 IN STRESS PERIOD    2
                    SECONDS     MINUTES      HOURS       DAYS        YEARS
                    -----------------------------------------------------------
   TIME STEP LENGTH  86400.      1440.0      24.000      1.0000     2.73785E-03
 STRESS PERIOD TIME 3.45600E+05  5760.0      96.000      4.0000     1.09514E-02
         TOTAL TIME 4.32000E+05  7200.0      120.00      5.0000     1.36893E-02
1
 
 SOLVING FOR HEAD 

 OUTPUT CONTROL FOR STRESS PERIOD    2   TIME STEP    5
    SAVE HEAD FOR ALL LAYERS
    SAVE DRAWDOWN FOR ALL LAYERS
    SAVE BUDGET
    PRINT HEAD FOR ALL LAYERS
    PRINT BUDGET
 UBDSV1 SAVING "         STORAGE" ON UNIT   1 AT TIME STEP  5, STRESS PERIOD   2
 UBDSV2 SAVING "   CONSTANT HEAD" ON UNIT   1 AT TIME STEP  5, STRESS PERIOD   2
 UBDSV1 SAVING "FLOW RIGHT FACE " ON UNIT   1 AT TIME STEP  5, STRESS PERIOD   2
 UBDSV1 SAVING "FLOW FRONT FACE " ON UNIT   1 AT TIME STEP  5, STRESS PERIOD   2
1
              HEAD IN LAYER   1 AT END OF TIME STEP   5 IN STRESS PERIOD    2
  ---------------------------------------------------------------------------

            1           2           3           4           5           6           7           8           9          10
           11          12          13          14          15
 ........................................................................................................................
   1    3.150       3.150       3.150       3.150       3.150       3.150       3.150       3.150       3.150       3.150    
        3.150       3.150       3.150       3.150       3.150    
   2    2.167       2.085       1.954       1.879       2.040       2.268       2.476       2.650       2.764       2.800    
        2.824       2.840       2.848       2.852       2.853    
   3    1.335       1.156      0.8334      0.5455      0.9958       1.501       1.913       2.236       2.431       2.497    
        2.545       2.577       2.590       2.593       2.594    
   4   0.7380      0.4846     -7.0526E-02  -1.136      0.1468      0.9411       1.495       1.910       2.154       2.245    
        2.319       2.374       2.379       2.372       2.369    
   5   0.4564      0.2722     -5.2688E-02 -0.3229      0.1870      0.7727       1.271       1.681       1.935       2.044    
        2.157       2.271       2.224       2.187       2.172    
   6   0.4029      0.3065      0.1684      0.1306      0.4034      0.7929       1.178       1.529       1.764       1.883    
        2.049       2.395       2.118       2.027       2.000    
   7   0.4686      0.4313      0.3937      0.4290      0.6056      0.8657       1.148       1.427       1.626       1.722    
        1.829       1.942       1.894       1.858       1.843    
   8   0.5871      0.5799      0.5860      0.6393      0.7642      0.9424       1.146       1.362       1.530       1.603    
        1.671       1.724       1.729       1.724       1.721    
   9   0.7447      0.7496      0.7694      0.8191      0.9083       1.031       1.176       1.343       1.496       1.553    
        1.598       1.632       1.648       1.654       1.657    
  10    1.006       1.013       1.033       1.070       1.129       1.208       1.303       1.424       1.566       1.606    
        1.635       1.658       1.673       1.682       1.687    
  11    1.606       1.611       1.624       1.645       1.675       1.711       1.751       1.789       1.818       1.824    
        1.835       1.849       1.860       1.868       1.872    
  12    2.507       2.510       2.517       2.526       2.537       2.547       2.545       2.511       2.340       2.289    
        2.283       2.288       2.295       2.300       2.303    
  13    3.062       3.065       3.069       3.075       3.082       3.089       3.091       3.086       3.072       3.064    
        3.064       3.067       3.071       3.074       3.076    
  14    3.855       3.856       3.858       3.861       3.865       3.869       3.876       3.893       3.956       3.974    
        3.979       3.982       3.984       3.985       3.985    
  15    4.800       4.800       4.800       4.800       4.800       4.800       4.800       4.802       4.807       4.808    
        4.807       4.807       4.806       4.805       4.805    
  16    3.932       3.932       3.931       3.927       3.918       3.910       3.911       3.913       3.910       3.902    
        3.891       3.880       3.871       3.864       3.861    
  17    3.196       3.196       3.192       3.178       3.152       3.126       3.138       3.148       3.145       3.130    
        3.109       3.089       3.071       3.059       3.053    
  18    2.654       2.653       2.643       2.612       2.547       2.459       2.526       2.569       2.575       2.557    
        2.530       2.501       2.477       2.459       2.450    
  19    2.313       2.310       2.295       2.245       2.114       1.774       2.088       2.191       2.211       2.194    
        2.161       2.127       2.097       2.077       2.066    
  20    2.152       2.149       2.134       2.091       2.002       1.890       1.974       2.032       2.043       2.022    
        1.986       1.948       1.916       1.894       1.882    

 HEAD WILL BE SAVED ON UNIT   51 AT END OF TIME STEP    5, STRESS PERIOD    2

 DRAWDOWN WILL BE SAVED ON UNIT   52 AT END OF TIME STEP    5, STRESS PERIOD    2
1
  VOLUMETRIC BUDGET FOR ENTIRE MODEL AT END OF TIME STEP    5, STRESS PERIOD   2
  ------------------------------------------------------------------------------

     CUMULATIVE VOLUMES      L**3       RATES FOR THIS TIME STEP      L**3/T
     ------------------                 ------------------------

           IN:                                      IN:
           ---                                      ---
             STORAGE =         683.3799               STORAGE =           0.0000
       CONSTANT HEAD =        4373.9707         CONSTANT HEAD =         764.9843
               WELLS =        1600.0000                 WELLS =         200.0000
       RIVER LEAKAGE =       66915.1875         RIVER LEAKAGE =        7384.6514

            TOTAL IN =       73572.5391              TOTAL IN =        8349.6357

          OUT:                                     OUT:
          ----                                     ----
             STORAGE =       69549.4844               STORAGE =        7799.6372
       CONSTANT HEAD =           0.0000         CONSTANT HEAD =           0.0000
               WELLS =        3350.0000                 WELLS =         550.0000
       RIVER LEAKAGE =         673.0626         RIVER LEAKAGE =           0.0000

           TOTAL OUT =       73572.5469             TOTAL OUT =        8349.6367

            IN - OUT =      -7.8125E-03              IN - OUT =      -9.7656E-04

 PERCENT DISCREPANCY =          -0.00     PERCENT DISCREPANCY =          -0.00






         TIME SUMMARY AT END OF TIME STEP    5 IN STRESS PERIOD    2
                    SECONDS     MINUTES      HOURS       DAYS        YEARS
                    -----------------------------------------------------------
   TIME STEP LENGTH  86400.      1440.0      24.000      1.0000     2.73785E-03
 STRESS PERIOD TIME 4.32000E+05  7200.0      120.00      5.0000     1.36893E-02
         TOTAL TIME 5.18400E+05  8640.0      144.00      6.0000     1.64271E-02
1
 
 SOLVING FOR HEAD 

 OUTPUT CONTROL FOR STRESS PERIOD    2   TIME STEP    6
    SAVE HEAD FOR ALL LAYERS
    SAVE DRAWDOWN FOR ALL LAYERS
    SAVE BUDGET
    PRINT HEAD FOR ALL LAYERS
    PRINT BUDGET
 UBDSV1 SAVING "         STORAGE" ON UNIT   1 AT TIME STEP  6, STRESS PERIOD   2
 UBDSV2 SAVING "   CONSTANT HEAD" ON UNIT   1 AT TIME STEP  6, STRESS PERIOD   2
 UBDSV1 SAVING "FLOW RIGHT FACE " ON UNIT   1 AT TIME STEP  6, STRESS PERIOD   2
 UBDSV1 SAVING "FLOW FRONT FACE " ON UNIT   1 AT TIME STEP  6, STRESS PERIOD   2
1
              HEAD IN LAYER   1 AT END OF TIME STEP   6 IN STRESS PERIOD    2
  ---------------------------------------------------------------------------

            1           2           3           4           5           6           7           8           9          10
           11          12          13          14          15
 ........................................................................................................................
   1    3.180       3.180       3.180       3.180       3.180       3.180       3.180       3.180       3.180       3.180    
        3.180       3.180       3.180       3.180       3.180    
   2    2.187       2.110       1.989       1.923       2.075       2.294       2.496       2.670       2.787       2.825    
        2.851       2.867       2.875       2.878       2.879    
   3    1.352       1.185      0.8889      0.6255       1.051       1.530       1.929       2.251       2.451       2.520    
        2.571       2.604       2.616       2.618       2.618    
   4   0.7545      0.5196      7.0369E-03  -1.012      0.2241      0.9758       1.510       1.924       2.174       2.269    
        2.348       2.405       2.408       2.399       2.393    
   5   0.4680      0.2965     -1.3668E-03 -0.2464      0.2382      0.7971       1.283       1.694       1.957       2.072    
        2.191       2.308       2.259       2.218       2.200    
   6   0.4094      0.3189      0.1921      0.1636      0.4272      0.8059       1.187       1.543       1.788       1.914    
        2.089       2.438       2.159       2.062       2.031    
   7   0.4735      0.4382      0.4044      0.4426      0.6166      0.8737       1.156       1.443       1.655       1.758    
        1.872       1.988       1.939       1.897       1.879    
   8   0.5968      0.5902      0.5974      0.6514      0.7759      0.9537       1.159       1.385       1.569       1.649    
        1.721       1.777       1.781       1.772       1.767    
   9   0.7738      0.7789      0.7989      0.8489      0.9380       1.061       1.208       1.386       1.557       1.619    
        1.668       1.703       1.718       1.722       1.723    
  10    1.088       1.096       1.115       1.152       1.211       1.289       1.385       1.513       1.668       1.710    
        1.740       1.763       1.777       1.785       1.789    
  11    1.792       1.797       1.809       1.830       1.858       1.893       1.929       1.961       1.978       1.980    
        1.989       2.001       2.011       2.018       2.021    
  12    2.743       2.746       2.752       2.760       2.770       2.776       2.771       2.730       2.548       2.488    
        2.477       2.480       2.486       2.491       2.493    
  13    3.273       3.275       3.279       3.284       3.290       3.294       3.293       3.285       3.269       3.256    
        3.253       3.255       3.258       3.260       3.262    
  14    3.991       3.992       3.994       3.996       3.999       4.002       4.007       4.021       4.078       4.092    
        4.097       4.098       4.100       4.101       4.101    
  15    4.823       4.823       4.822       4.822       4.821       4.821       4.821       4.823       4.828       4.829    
        4.829       4.828       4.828       4.827       4.827    
  16    4.045       4.043       4.039       4.031       4.019       4.009       4.012       4.017       4.019       4.016    
        4.009       4.000       3.993       3.988       3.985    
  17    3.364       3.360       3.350       3.328       3.295       3.266       3.281       3.300       3.306       3.300    
        3.287       3.272       3.258       3.248       3.243    
  18    2.838       2.832       2.812       2.770       2.695       2.602       2.674       2.728       2.748       2.744    
        2.727       2.707       2.687       2.673       2.666    
  19    2.490       2.481       2.453       2.389       2.245       1.901       2.220       2.338       2.375       2.374    
        2.355       2.330       2.307       2.290       2.281    
  20    2.320       2.310       2.281       2.221       2.119       2.002       2.092       2.166       2.196       2.193    
        2.171       2.144       2.119       2.100       2.091    

 HEAD WILL BE SAVED ON UNIT   51 AT END OF TIME STEP    6, STRESS PERIOD    2

 DRAWDOWN WILL BE SAVED ON UNIT   52 AT END OF TIME STEP    6, STRESS PERIOD    2
1
  VOLUMETRIC BUDGET FOR ENTIRE MODEL AT END OF TIME STEP    6, STRESS PERIOD   2
  ------------------------------------------------------------------------------

     CUMULATIVE VOLUMES      L**3       RATES FOR THIS TIME STEP      L**3/T
     ------------------                 ------------------------

           IN:                                      IN:
           ---                                      ---
             STORAGE =         683.3799               STORAGE =           0.0000
       CONSTANT HEAD =        5144.5859         CONSTANT HEAD =         770.6152
               WELLS =        1800.0000                 WELLS =         200.0000
       RIVER LEAKAGE =       73486.7578         RIVER LEAKAGE =        6571.5737

            TOTAL IN =       81114.7266              TOTAL IN =        7542.1890

          OUT:                                     OUT:
          ----                                     ----
             STORAGE =       76541.6719               STORAGE =        6992.1890
       CONSTANT HEAD =           0.0000         CONSTANT HEAD =           0.0000
               WELLS =        3900.0000                 WELLS =         550.0000
       RIVER LEAKAGE =         673.0626         RIVER LEAKAGE =           0.0000

           TOTAL OUT =       81114.7344             TOTAL OUT =        7542.1890

            IN - OUT =      -7.8125E-03              IN - OUT =           0.0000

 PERCENT DISCREPANCY =          -0.00     PERCENT DISCREPANCY =           0.00






         TIME SUMMARY AT END OF TIME STEP    6 IN STRESS PERIOD    2
                    SECONDS     MINUTES      HOURS       DAYS        YEARS
                    -----------------------------------------------------------
   TIME STEP LENGTH  86400.      1440.0      24.000      1.0000     2.73785E-03
 STRESS PERIOD TIME 5.18400E+05  8640.0      144.00      6.0000     1.64271E-02
         TOTAL TIME 6.04800E+05  10080.      168.00      7.0000     1.91650E-02
1
 
 SOLVING FOR HEAD 

 OUTPUT CONTROL FOR STRESS PERIOD    2   TIME STEP    7
    SAVE HEAD FOR ALL LAYERS
    SAVE DRAWDOWN FOR ALL LAYERS
    SAVE BUDGET
    PRINT HEAD FOR ALL LAYERS
    PRINT BUDGET
 UBDSV1 SAVING "         STORAGE" ON UNIT   1 AT TIME STEP  7, STRESS PERIOD   2
 UBDSV2 SAVING "   CONSTANT HEAD" ON UNIT   1 AT TIME STEP  7, STRESS PERIOD   2
 UBDSV1 SAVING "FLOW RIGHT FACE " ON UNIT   1 AT TIME STEP  7, STRESS PERIOD   2
 UBDSV1 SAVING "FLOW FRONT FACE " ON UNIT   1 AT TIME STEP  7, STRESS PERIOD   2
1
              HEAD IN LAYER   1 AT END OF TIME STEP   7 IN STRESS PERIOD    2
  ---------------------------------------------------------------------------

            1           2           3           4           5           6           7           8           9          10
           11          12          13          14          15
 ........................................................................................................................
   1    3.210       3.210       3.210       3.210       3.210       3.210       3.210       3.210       3.210       3.210    
        3.210       3.210       3.210       3.210       3.210    
   2    2.209       2.137       2.026       1.967       2.112       2.321       2.519       2.692       2.812       2.851    
        2.878       2.895       2.903       2.906       2.906    
   3    1.372       1.217      0.9430      0.6978       1.105       1.562       1.948       2.269       2.473       2.545    
        2.598       2.632       2.644       2.645       2.644    
   4   0.7734      0.5552      7.6767E-02 -0.9109      0.2935       1.011       1.529       1.939       2.195       2.294    
        2.377       2.436       2.438       2.427       2.419    
   5   0.4820      0.3226      4.8224E-02 -0.1779      0.2878      0.8235       1.298       1.710       1.980       2.100    
        2.224       2.344       2.294       2.250       2.229    
   6   0.4179      0.3334      0.2176      0.1969      0.4529      0.8214       1.198       1.559       1.815       1.947    
        2.127       2.479       2.198       2.099       2.065    
   7   0.4804      0.4475      0.4178      0.4586      0.6303      0.8843       1.167       1.462       1.687       1.797    
        1.916       2.035       1.985       1.940       1.920    
   8   0.6099      0.6042      0.6126      0.6675      0.7914      0.9691       1.177       1.413       1.613       1.699    
        1.776       1.834       1.837       1.827       1.820    
   9   0.8095      0.8148      0.8352      0.8853      0.9744       1.098       1.248       1.436       1.625       1.692    
        1.744       1.780       1.794       1.797       1.797    
  10    1.178       1.185       1.204       1.241       1.300       1.378       1.475       1.608       1.774       1.817    
        1.849       1.871       1.885       1.892       1.894    
  11    1.968       1.973       1.985       2.005       2.033       2.066       2.099       2.125       2.129       2.127    
        2.134       2.145       2.154       2.160       2.163    
  12    2.942       2.944       2.950       2.957       2.965       2.970       2.961       2.916       2.726       2.661    
        2.647       2.648       2.652       2.656       2.658    
  13    3.444       3.445       3.449       3.453       3.458       3.460       3.457       3.445       3.427       3.409    
        3.404       3.404       3.406       3.409       3.410    
  14    4.098       4.098       4.100       4.102       4.104       4.106       4.109       4.120       4.171       4.182    
        4.185       4.186       4.187       4.188       4.188    
  15    4.840       4.840       4.840       4.839       4.838       4.837       4.838       4.840       4.844       4.845    
        4.845       4.845       4.844       4.844       4.844    
  16    4.133       4.130       4.123       4.111       4.097       4.087       4.090       4.098       4.104       4.104    
        4.101       4.095       4.090       4.086       4.083    
  17    3.502       3.495       3.479       3.452       3.414       3.384       3.401       3.425       3.439       3.441    
        3.434       3.424       3.414       3.406       3.402    
  18    2.999       2.988       2.962       2.911       2.829       2.735       2.810       2.872       2.903       2.910    
        2.902       2.889       2.874       2.863       2.857    
  19    2.656       2.642       2.605       2.530       2.379       2.033       2.356       2.483       2.534       2.546    
        2.538       2.522       2.505       2.491       2.484    
  20    2.484       2.468       2.430       2.359       2.248       2.127       2.222       2.307       2.352       2.363    
        2.355       2.337       2.319       2.304       2.296    

 HEAD WILL BE SAVED ON UNIT   51 AT END OF TIME STEP    7, STRESS PERIOD    2

 DRAWDOWN WILL BE SAVED ON UNIT   52 AT END OF TIME STEP    7, STRESS PERIOD    2
1
  VOLUMETRIC BUDGET FOR ENTIRE MODEL AT END OF TIME STEP    7, STRESS PERIOD   2
  ------------------------------------------------------------------------------

     CUMULATIVE VOLUMES      L**3       RATES FOR THIS TIME STEP      L**3/T
     ------------------                 ------------------------

           IN:                                      IN:
           ---                                      ---
             STORAGE =         683.3799               STORAGE =           0.0000
       CONSTANT HEAD =        5918.9805         CONSTANT HEAD =         774.3945
               WELLS =        2000.0000                 WELLS =         200.0000
       RIVER LEAKAGE =       79430.2500         RIVER LEAKAGE =        5943.4888

            TOTAL IN =       88032.6094              TOTAL IN =        6917.8833

          OUT:                                     OUT:
          ----                                     ----
             STORAGE =       82909.5547               STORAGE =        6367.8833
       CONSTANT HEAD =           0.0000         CONSTANT HEAD =           0.0000
               WELLS =        4450.0000                 WELLS =         550.0000
       RIVER LEAKAGE =         673.0626         RIVER LEAKAGE =           0.0000

           TOTAL OUT =       88032.6172             TOTAL OUT =        6917.8833

            IN - OUT =      -7.8125E-03              IN - OUT =           0.0000

 PERCENT DISCREPANCY =          -0.00     PERCENT DISCREPANCY =           0.00






         TIME SUMMARY AT END OF TIME STEP    7 IN STRESS PERIOD    2
                    SECONDS     MINUTES      HOURS       DAYS        YEARS
                    -----------------------------------------------------------
   TIME STEP LENGTH  86400.      1440.0      24.000      1.0000     2.73785E-03
 STRESS PERIOD TIME 6.04800E+05  10080.      168.00      7.0000     1.91650E-02
         TOTAL TIME 6.91200E+05  11520.      192.00      8.0000     2.19028E-02
1
 
 SOLVING FOR HEAD 

 OUTPUT CONTROL FOR STRESS PERIOD    2   TIME STEP    8
    SAVE HEAD FOR ALL LAYERS
    SAVE DRAWDOWN FOR ALL LAYERS
    SAVE BUDGET
    PRINT HEAD FOR ALL LAYERS
    PRINT BUDGET
 UBDSV1 SAVING "         STORAGE" ON UNIT   1 AT TIME STEP  8, STRESS PERIOD   2
 UBDSV2 SAVING "   CONSTANT HEAD" ON UNIT   1 AT TIME STEP  8, STRESS PERIOD   2
 UBDSV1 SAVING "FLOW RIGHT FACE " ON UNIT   1 AT TIME STEP  8, STRESS PERIOD   2
 UBDSV1 SAVING "FLOW FRONT FACE " ON UNIT   1 AT TIME STEP  8, STRESS PERIOD   2
1
              HEAD IN LAYER   1 AT END OF TIME STEP   8 IN STRESS PERIOD    2
  ---------------------------------------------------------------------------

            1           2           3           4           5           6           7           8           9          10
           11          12          13          14          15
 ........................................................................................................................
   1    3.240       3.240       3.240       3.240       3.240       3.240       3.240       3.240       3.240       3.240    
        3.240       3.240       3.240       3.240       3.240    
   2    2.234       2.167       2.064       2.010       2.150       2.350       2.543       2.716       2.838       2.879    
        2.906       2.924       2.932       2.934       2.934    
   3    1.394       1.250      0.9952      0.7637       1.157       1.594       1.970       2.288       2.496       2.570    
        2.625       2.661       2.673       2.673       2.671    
   4   0.7946      0.5911      0.1400     -0.8257      0.3565       1.047       1.549       1.958       2.219       2.321    
        2.406       2.467       2.469       2.457       2.448    
   5   0.4981      0.3501      9.5668E-02 -0.1162      0.3352      0.8513       1.315       1.728       2.005       2.129    
        2.257       2.379       2.329       2.283       2.261    
   6   0.4285      0.3500      0.2443      0.2303      0.4800      0.8391       1.212       1.578       1.843       1.981    
        2.165       2.519       2.239       2.137       2.101    
   7   0.4897      0.4593      0.4336      0.4770      0.6467      0.8978       1.182       1.485       1.723       1.838    
        1.962       2.083       2.033       1.987       1.965    
   8   0.6267      0.6219      0.6317      0.6875      0.8110      0.9887       1.200       1.447       1.663       1.754    
        1.835       1.895       1.898       1.886       1.878    
   9   0.8510      0.8565      0.8773      0.9277       1.017       1.141       1.295       1.493       1.698       1.769    
        1.823       1.861       1.875       1.877       1.876    
  10    1.271       1.279       1.298       1.335       1.393       1.471       1.570       1.708       1.880       1.925    
        1.957       1.979       1.992       1.998       2.000    
  11    2.132       2.137       2.149       2.168       2.194       2.226       2.257       2.278       2.270       2.265    
        2.271       2.280       2.288       2.293       2.296    
  12    3.110       3.112       3.117       3.124       3.131       3.133       3.122       3.073       2.881       2.812    
        2.795       2.794       2.797       2.801       2.802    
  13    3.585       3.586       3.589       3.593       3.596       3.597       3.592       3.577       3.556       3.535    
        3.528       3.527       3.528       3.530       3.531    
  14    4.184       4.184       4.186       4.187       4.188       4.189       4.191       4.200       4.245       4.254    
        4.255       4.256       4.256       4.257       4.257    
  15    4.855       4.854       4.853       4.852       4.851       4.850       4.851       4.853       4.857       4.858    
        4.858       4.858       4.858       4.858       4.858    
  16    4.204       4.200       4.191       4.177       4.161       4.150       4.155       4.165       4.174       4.178    
        4.177       4.174       4.170       4.167       4.165    
  17    3.617       3.608       3.589       3.557       3.517       3.486       3.505       3.533       3.553       3.561    
        3.560       3.554       3.547       3.541       3.538    
  18    3.141       3.127       3.095       3.039       2.953       2.858       2.936       3.004       3.043       3.058    
        3.059       3.051       3.042       3.034       3.029    
  19    2.810       2.792       2.749       2.667       2.511       2.164       2.489       2.624       2.685       2.707    
        2.709       2.701       2.690       2.680       2.674    
  20    2.641       2.621       2.576       2.497       2.380       2.258       2.357       2.450       2.506       2.529    
        2.531       2.522       2.510       2.499       2.493    

 HEAD WILL BE SAVED ON UNIT   51 AT END OF TIME STEP    8, STRESS PERIOD    2

 DRAWDOWN WILL BE SAVED ON UNIT   52 AT END OF TIME STEP    8, STRESS PERIOD    2
1
  VOLUMETRIC BUDGET FOR ENTIRE MODEL AT END OF TIME STEP    8, STRESS PERIOD   2
  ------------------------------------------------------------------------------

     CUMULATIVE VOLUMES      L**3       RATES FOR THIS TIME STEP      L**3/T
     ------------------                 ------------------------

           IN:                                      IN:
           ---                                      ---
             STORAGE =         683.3799               STORAGE =           0.0000
       CONSTANT HEAD =        6695.7910         CONSTANT HEAD =         776.8104
               WELLS =        2200.0000                 WELLS =         200.0000
       RIVER LEAKAGE =       84866.4141         RIVER LEAKAGE =        5436.1646

            TOTAL IN =       94445.5859              TOTAL IN =        6412.9751

          OUT:                                     OUT:
          ----                                     ----
             STORAGE =       88772.5312               STORAGE =        5862.9756
       CONSTANT HEAD =           0.0000         CONSTANT HEAD =           0.0000
               WELLS =        5000.0000                 WELLS =         550.0000
       RIVER LEAKAGE =         673.0626         RIVER LEAKAGE =           0.0000

           TOTAL OUT =       94445.5938             TOTAL OUT =        6412.9756

            IN - OUT =      -7.8125E-03              IN - OUT =      -4.8828E-04

 PERCENT DISCREPANCY =          -0.00     PERCENT DISCREPANCY =          -0.00






         TIME SUMMARY AT END OF TIME STEP    8 IN STRESS PERIOD    2
                    SECONDS     MINUTES      HOURS       DAYS        YEARS
                    -----------------------------------------------------------
   TIME STEP LENGTH  86400.      1440.0      24.000      1.0000     2.73785E-03
 STRESS PERIOD TIME 6.91200E+05  11520.      192.00      8.0000     2.19028E-02
         TOTAL TIME 7.77600E+05  12960.      216.00      9.0000     2.46407E-02
1
 
 SOLVING FOR HEAD 

 OUTPUT CONTROL FOR STRESS PERIOD    2   TIME STEP    9
    SAVE HEAD FOR ALL LAYERS
    SAVE DRAWDOWN FOR ALL LAYERS
    SAVE BUDGET
    PRINT HEAD FOR ALL LAYERS
    PRINT BUDGET
 UBDSV1 SAVING "         STORAGE" ON UNIT   1 AT TIME STEP  9, STRESS PERIOD   2
 UBDSV2 SAVING "   CONSTANT HEAD" ON UNIT   1 AT TIME STEP  9, STRESS PERIOD   2
 UBDSV1 SAVING "FLOW RIGHT FACE " ON UNIT   1 AT TIME STEP  9, STRESS PERIOD   2
 UBDSV1 SAVING "FLOW FRONT FACE " ON UNIT   1 AT TIME STEP  9, STRESS PERIOD   2
1
              HEAD IN LAYER   1 AT END OF TIME STEP   9 IN STRESS PERIOD    2
  ---------------------------------------------------------------------------

            1           2           3           4           5           6           7           8           9          10
           11          12          13          14          15
 ........................................................................................................................
   1    3.270       3.270       3.270       3.270       3.270       3.270       3.270       3.270       3.270       3.270    
        3.270       3.270       3.270       3.270       3.270    
   2    2.259       2.197       2.102       2.052       2.187       2.381       2.568       2.741       2.865       2.906    
        2.935       2.953       2.961       2.963       2.963    
   3    1.418       1.284       1.045      0.8242       1.207       1.628       1.993       2.310       2.521       2.597    
        2.654       2.690       2.702       2.702       2.699    
   4   0.8175      0.6269      0.1978     -0.7518      0.4142       1.082       1.571       1.978       2.243       2.348    
        2.436       2.498       2.500       2.487       2.478    
   5   0.5162      0.3784      0.1409     -6.0017E-02  0.3805      0.8800       1.335       1.748       2.031       2.160    
        2.290       2.414       2.364       2.317       2.294    
   6   0.4412      0.3685      0.2720      0.2636      0.5080      0.8590       1.229       1.599       1.874       2.016    
        2.204       2.560       2.280       2.177       2.141    
   7   0.5014      0.4737      0.4520      0.4978      0.6656      0.9143       1.199       1.511       1.762       1.883    
        2.010       2.133       2.083       2.036       2.013    
   8   0.6472      0.6434      0.6547      0.7114      0.8347       1.013       1.228       1.485       1.716       1.812    
        1.897       1.958       1.961       1.949       1.940    
   9   0.8974      0.9032      0.9244      0.9751       1.064       1.189       1.347       1.555       1.773       1.848    
        1.905       1.943       1.957       1.959       1.958    
  10    1.367       1.374       1.393       1.430       1.488       1.566       1.666       1.808       1.984       2.030    
        2.062       2.085       2.098       2.103       2.105    
  11    2.283       2.288       2.299       2.317       2.343       2.373       2.401       2.418       2.400       2.393    
        2.397       2.405       2.413       2.417       2.419    
  12    3.253       3.256       3.260       3.266       3.272       3.272       3.259       3.208       3.015       2.943    
        2.924       2.922       2.925       2.927       2.929    
  13    3.702       3.704       3.706       3.709       3.712       3.711       3.704       3.687       3.664       3.641    
        3.631       3.629       3.630       3.631       3.632    
  14    4.255       4.255       4.256       4.257       4.258       4.258       4.258       4.265       4.305       4.312    
        4.312       4.312       4.312       4.313       4.313    
  15    4.866       4.866       4.865       4.864       4.862       4.862       4.862       4.864       4.868       4.869    
        4.870       4.869       4.869       4.869       4.869    
  16    4.264       4.259       4.249       4.234       4.216       4.205       4.211       4.223       4.234       4.240    
        4.242       4.241       4.238       4.236       4.235    
  17    3.717       3.707       3.685       3.650       3.608       3.576       3.597       3.628       3.652       3.665    
        3.669       3.668       3.664       3.660       3.658    
  18    3.268       3.252       3.216       3.156       3.067       2.972       3.052       3.125       3.170       3.193    
        3.200       3.198       3.193       3.188       3.184    
  19    2.952       2.931       2.884       2.797       2.637       2.291       2.618       2.758       2.827       2.858    
        2.868       2.867       2.861       2.855       2.851    
  20    2.789       2.767       2.717       2.632       2.512       2.389       2.490       2.590       2.654       2.687    
        2.698       2.697       2.690       2.683       2.679    

 HEAD WILL BE SAVED ON UNIT   51 AT END OF TIME STEP    9, STRESS PERIOD    2

 DRAWDOWN WILL BE SAVED ON UNIT   52 AT END OF TIME STEP    9, STRESS PERIOD    2
1
  VOLUMETRIC BUDGET FOR ENTIRE MODEL AT END OF TIME STEP    9, STRESS PERIOD   2
  ------------------------------------------------------------------------------

     CUMULATIVE VOLUMES      L**3       RATES FOR THIS TIME STEP      L**3/T
     ------------------                 ------------------------

           IN:                                      IN:
           ---                                      ---
             STORAGE =         683.3799               STORAGE =           0.0000
       CONSTANT HEAD =        7473.9888         CONSTANT HEAD =         778.1976
               WELLS =        2400.0000                 WELLS =         200.0000
       RIVER LEAKAGE =       89879.1562         RIVER LEAKAGE =        5012.7446

            TOTAL IN =      100436.5234              TOTAL IN =        5990.9424

          OUT:                                     OUT:
          ----                                     ----
             STORAGE =       94213.4766               STORAGE =        5440.9424
       CONSTANT HEAD =           0.0000         CONSTANT HEAD =           0.0000
               WELLS =        5550.0000                 WELLS =         550.0000
       RIVER LEAKAGE =         673.0626         RIVER LEAKAGE =           0.0000

           TOTAL OUT =      100436.5391             TOTAL OUT =        5990.9424

            IN - OUT =      -1.5625E-02              IN - OUT =           0.0000

 PERCENT DISCREPANCY =          -0.00     PERCENT DISCREPANCY =           0.00






         TIME SUMMARY AT END OF TIME STEP    9 IN STRESS PERIOD    2
                    SECONDS     MINUTES      HOURS       DAYS        YEARS
                    -----------------------------------------------------------
   TIME STEP LENGTH  86400.      1440.0      24.000      1.0000     2.73785E-03
 STRESS PERIOD TIME 7.77600E+05  12960.      216.00      9.0000     2.46407E-02
         TOTAL TIME 8.64000E+05  14400.      240.00      10.000     2.73785E-02
1
 
 SOLVING FOR HEAD 

 OUTPUT CONTROL FOR STRESS PERIOD    2   TIME STEP   10
    SAVE HEAD FOR ALL LAYERS
    SAVE DRAWDOWN FOR ALL LAYERS
    SAVE BUDGET
    PRINT HEAD FOR ALL LAYERS
    PRINT BUDGET
 UBDSV1 SAVING "         STORAGE" ON UNIT   1 AT TIME STEP 10, STRESS PERIOD   2
 UBDSV2 SAVING "   CONSTANT HEAD" ON UNIT   1 AT TIME STEP 10, STRESS PERIOD   2
 UBDSV1 SAVING "FLOW RIGHT FACE " ON UNIT   1 AT TIME STEP 10, STRESS PERIOD   2
 UBDSV1 SAVING "FLOW FRONT FACE " ON UNIT   1 AT TIME STEP 10, STRESS PERIOD   2
1
              HEAD IN LAYER   1 AT END OF TIME STEP  10 IN STRESS PERIOD    2
  ---------------------------------------------------------------------------

            1           2           3           4           5           6           7           8           9          10
           11          12          13          14          15
 ........................................................................................................................
   1    3.300       3.300       3.300       3.300       3.300       3.300       3.300       3.300       3.300       3.300    
        3.300       3.300       3.300       3.300       3.300    
   2    2.286       2.228       2.139       2.094       2.225       2.412       2.595       2.767       2.893       2.935    
        2.964       2.982       2.990       2.992       2.992    
   3    1.444       1.318       1.093      0.8802       1.255       1.662       2.018       2.333       2.547       2.625    
        2.683       2.720       2.732       2.732       2.729    
   4   0.8421      0.6625      0.2513     -0.6864      0.4674       1.118       1.595       2.000       2.270       2.377    
        2.466       2.530       2.533       2.519       2.510    
   5   0.5361      0.4073      0.1841     -8.2245E-03  0.4238      0.9095       1.356       1.770       2.060       2.191    
        2.324       2.450       2.400       2.353       2.330    
   6   0.4559      0.3886      0.3004      0.2968      0.5369      0.8808       1.248       1.623       1.907       2.053    
        2.244       2.602       2.322       2.220       2.183    
   7   0.5157      0.4906      0.4728      0.5208      0.6872      0.9337       1.220       1.541       1.803       1.929    
        2.060       2.185       2.135       2.088       2.064    
   8   0.6714      0.6686      0.6814      0.7391      0.8622       1.040       1.259       1.527       1.772       1.873    
        1.960       2.024       2.027       2.014       2.005    
   9   0.9478      0.9540      0.9757       1.027       1.116       1.241       1.403       1.621       1.849       1.928    
        1.987       2.026       2.040       2.042       2.040    
  10    1.462       1.469       1.489       1.525       1.583       1.661       1.762       1.907       2.084       2.132    
        2.164       2.187       2.200       2.205       2.206    
  11    2.420       2.425       2.435       2.453       2.478       2.507       2.533       2.547       2.519       2.510    
        2.513       2.521       2.528       2.532       2.534    
  12    3.376       3.378       3.382       3.388       3.392       3.392       3.376       3.325       3.132       3.059    
        3.039       3.035       3.037       3.039       3.040    
  13    3.802       3.803       3.805       3.808       3.809       3.807       3.799       3.781       3.755       3.730    
        3.719       3.716       3.716       3.717       3.717    
  14    4.315       4.315       4.315       4.316       4.316       4.315       4.315       4.320       4.356       4.361    
        4.360       4.359       4.359       4.360       4.360    
  15    4.876       4.876       4.875       4.874       4.872       4.871       4.872       4.873       4.877       4.879    
        4.879       4.879       4.879       4.879       4.879    
  16    4.317       4.311       4.299       4.283       4.265       4.254       4.260       4.273       4.286       4.294    
        4.298       4.299       4.298       4.297       4.296    
  17    3.805       3.793       3.770       3.733       3.690       3.658       3.680       3.714       3.742       3.759    
        3.767       3.769       3.768       3.766       3.764    
  18    3.383       3.365       3.327       3.264       3.174       3.078       3.159       3.236       3.287       3.315    
        3.328       3.331       3.330       3.327       3.325    
  19    3.083       3.060       3.010       2.920       2.758       2.412       2.741       2.886       2.961       2.999    
        3.016       3.021       3.019       3.016       3.014    
  20    2.928       2.903       2.850       2.762       2.639       2.517       2.620       2.725       2.796       2.836    
        2.855       2.860       2.858       2.855       2.852    

 HEAD WILL BE SAVED ON UNIT   51 AT END OF TIME STEP   10, STRESS PERIOD    2

 DRAWDOWN WILL BE SAVED ON UNIT   52 AT END OF TIME STEP   10, STRESS PERIOD    2
1
  VOLUMETRIC BUDGET FOR ENTIRE MODEL AT END OF TIME STEP   10, STRESS PERIOD   2
  ------------------------------------------------------------------------------

     CUMULATIVE VOLUMES      L**3       RATES FOR THIS TIME STEP      L**3/T
     ------------------                 ------------------------

           IN:                                      IN:
           ---                                      ---
             STORAGE =         683.3799               STORAGE =           0.0000
       CONSTANT HEAD =        8252.7715         CONSTANT HEAD =         778.7825
               WELLS =        2600.0000                 WELLS =         200.0000
       RIVER LEAKAGE =       94529.8047         RIVER LEAKAGE =        4650.6499

            TOTAL IN =      106065.9531              TOTAL IN =        5629.4326

          OUT:                                     OUT:
          ----                                     ----
             STORAGE =       99292.9141               STORAGE =        5079.4341
       CONSTANT HEAD =           0.0000         CONSTANT HEAD =           0.0000
               WELLS =        6100.0000                 WELLS =         550.0000
       RIVER LEAKAGE =         673.0626         RIVER LEAKAGE =           0.0000

           TOTAL OUT =      106065.9766             TOTAL OUT =        5629.4341

            IN - OUT =      -2.3438E-02              IN - OUT =      -1.4648E-03

 PERCENT DISCREPANCY =          -0.00     PERCENT DISCREPANCY =          -0.00






         TIME SUMMARY AT END OF TIME STEP   10 IN STRESS PERIOD    2
                    SECONDS     MINUTES      HOURS       DAYS        YEARS
                    -----------------------------------------------------------
   TIME STEP LENGTH  86400.      1440.0      24.000      1.0000     2.73785E-03
 STRESS PERIOD TIME 8.64000E+05  14400.      240.00      10.000     2.73785E-02
         TOTAL TIME 9.50400E+05  15840.      264.00      11.000     3.01164E-02
1
 
 SOLVING FOR HEAD 

 OUTPUT CONTROL FOR STRESS PERIOD    2   TIME STEP   11
    SAVE HEAD FOR ALL LAYERS
    SAVE DRAWDOWN FOR ALL LAYERS
    SAVE BUDGET
    PRINT HEAD FOR ALL LAYERS
    PRINT BUDGET
 UBDSV1 SAVING "         STORAGE" ON UNIT   1 AT TIME STEP 11, STRESS PERIOD   2
 UBDSV2 SAVING "   CONSTANT HEAD" ON UNIT   1 AT TIME STEP 11, STRESS PERIOD   2
 UBDSV1 SAVING "FLOW RIGHT FACE " ON UNIT   1 AT TIME STEP 11, STRESS PERIOD   2
 UBDSV1 SAVING "FLOW FRONT FACE " ON UNIT   1 AT TIME STEP 11, STRESS PERIOD   2
1
              HEAD IN LAYER   1 AT END OF TIME STEP  11 IN STRESS PERIOD    2
  ---------------------------------------------------------------------------

            1           2           3           4           5           6           7           8           9          10
           11          12          13          14          15
 ........................................................................................................................
   1    3.330       3.330       3.330       3.330       3.330       3.330       3.330       3.330       3.330       3.330    
        3.330       3.330       3.330       3.330       3.330    
   2    2.315       2.260       2.177       2.134       2.262       2.443       2.622       2.793       2.921       2.964    
        2.993       3.012       3.021       3.022       3.022    
   3    1.471       1.353       1.139      0.9325       1.301       1.696       2.044       2.358       2.574       2.653    
        2.712       2.751       2.763       2.762       2.760    
   4   0.8680      0.6978      0.3012     -0.6272      0.5172       1.153       1.621       2.024       2.297       2.407    
        2.498       2.562       2.566       2.552       2.543    
   5   0.5575      0.4367      0.2255      4.0008E-02  0.4654      0.9396       1.379       1.794       2.090       2.224    
        2.360       2.487       2.438       2.390       2.367    
   6   0.4726      0.4103      0.3294      0.3299      0.5666      0.9044       1.269       1.650       1.943       2.092    
        2.286       2.645       2.366       2.264       2.226    
   7   0.5327      0.5100      0.4959      0.5460      0.7112      0.9560       1.244       1.574       1.847       1.977    
        2.111       2.238       2.189       2.141       2.118    
   8   0.6989      0.6972      0.7116      0.7702      0.8933       1.072       1.295       1.573       1.829       1.935    
        2.025       2.090       2.094       2.081       2.072    
   9    1.001       1.008       1.030       1.081       1.171       1.297       1.463       1.689       1.926       2.008    
        2.069       2.109       2.123       2.124       2.123    
  10    1.556       1.563       1.582       1.619       1.676       1.754       1.857       2.004       2.181       2.229    
        2.262       2.285       2.297       2.302       2.303    
  11    2.545       2.549       2.560       2.577       2.601       2.629       2.654       2.664       2.628       2.618    
        2.621       2.628       2.634       2.637       2.639    
  12    3.483       3.485       3.488       3.493       3.497       3.495       3.479       3.426       3.236       3.162    
        3.140       3.136       3.137       3.139       3.140    
  13    3.887       3.888       3.890       3.892       3.892       3.890       3.880       3.861       3.834       3.807    
        3.795       3.791       3.791       3.791       3.792    
  14    4.365       4.365       4.366       4.366       4.366       4.364       4.363       4.366       4.399       4.402    
        4.401       4.400       4.400       4.400       4.400    
  15    4.885       4.885       4.884       4.882       4.881       4.880       4.880       4.882       4.885       4.887    
        4.887       4.887       4.887       4.887       4.887    
  16    4.363       4.356       4.344       4.327       4.309       4.298       4.304       4.319       4.333       4.343    
        4.349       4.351       4.352       4.351       4.351    
  17    3.884       3.871       3.846       3.809       3.765       3.733       3.756       3.792       3.823       3.844    
        3.855       3.860       3.861       3.861       3.860    
  18    3.487       3.468       3.428       3.364       3.272       3.177       3.260       3.340       3.395       3.428    
        3.445       3.453       3.455       3.454       3.453    
  19    3.203       3.179       3.127       3.035       2.873       2.527       2.857       3.006       3.086       3.130    
        3.153       3.162       3.165       3.165       3.164    
  20    3.056       3.030       2.975       2.885       2.760       2.639       2.744       2.853       2.930       2.976    
        3.001       3.012       3.015       3.014       3.013    

 HEAD WILL BE SAVED ON UNIT   51 AT END OF TIME STEP   11, STRESS PERIOD    2

 DRAWDOWN WILL BE SAVED ON UNIT   52 AT END OF TIME STEP   11, STRESS PERIOD    2
1
  VOLUMETRIC BUDGET FOR ENTIRE MODEL AT END OF TIME STEP   11, STRESS PERIOD   2
  ------------------------------------------------------------------------------

     CUMULATIVE VOLUMES      L**3       RATES FOR THIS TIME STEP      L**3/T
     ------------------                 ------------------------

           IN:                                      IN:
           ---                                      ---
             STORAGE =         683.3799               STORAGE =           0.0000
       CONSTANT HEAD =        9031.4883         CONSTANT HEAD =         778.7170
               WELLS =        2800.0000                 WELLS =         200.0000
       RIVER LEAKAGE =       98865.1250         RIVER LEAKAGE =        4335.3179

            TOTAL IN =      111379.9922              TOTAL IN =        5314.0352

          OUT:                                     OUT:
          ----                                     ----
             STORAGE =      104056.9531               STORAGE =        4764.0361
       CONSTANT HEAD =           0.0000         CONSTANT HEAD =           0.0000
               WELLS =        6650.0000                 WELLS =         550.0000
       RIVER LEAKAGE =         673.0626         RIVER LEAKAGE =           0.0000

           TOTAL OUT =      111380.0156             TOTAL OUT =        5314.0361

            IN - OUT =      -2.3438E-02              IN - OUT =      -9.7656E-04

 PERCENT DISCREPANCY =          -0.00     PERCENT DISCREPANCY =          -0.00






         TIME SUMMARY AT END OF TIME STEP   11 IN STRESS PERIOD    2
                    SECONDS     MINUTES      HOURS       DAYS        YEARS
                    -----------------------------------------------------------
   TIME STEP LENGTH  86400.      1440.0      24.000      1.0000     2.73785E-03
 STRESS PERIOD TIME 9.50400E+05  15840.      264.00      11.000     3.01164E-02
         TOTAL TIME 1.03680E+06  17280.      288.00      12.000     3.28542E-02
1
 
 SOLVING FOR HEAD 

 OUTPUT CONTROL FOR STRESS PERIOD    2   TIME STEP   12
    SAVE HEAD FOR ALL LAYERS
    SAVE DRAWDOWN FOR ALL LAYERS
    SAVE BUDGET
    PRINT HEAD FOR ALL LAYERS
    PRINT BUDGET
 UBDSV1 SAVING "         STORAGE" ON UNIT   1 AT TIME STEP 12, STRESS PERIOD   2
 UBDSV2 SAVING "   CONSTANT HEAD" ON UNIT   1 AT TIME STEP 12, STRESS PERIOD   2
 UBDSV1 SAVING "FLOW RIGHT FACE " ON UNIT   1 AT TIME STEP 12, STRESS PERIOD   2
 UBDSV1 SAVING "FLOW FRONT FACE " ON UNIT   1 AT TIME STEP 12, STRESS PERIOD   2
1
              HEAD IN LAYER   1 AT END OF TIME STEP  12 IN STRESS PERIOD    2
  ---------------------------------------------------------------------------

            1           2           3           4           5           6           7           8           9          10
           11          12          13          14          15
 ........................................................................................................................
   1    3.360       3.360       3.360       3.360       3.360       3.360       3.360       3.360       3.360       3.360    
        3.360       3.360       3.360       3.360       3.360    
   2    2.343       2.292       2.214       2.173       2.299       2.475       2.650       2.821       2.950       2.993    
        3.023       3.043       3.051       3.053       3.053    
   3    1.500       1.388       1.183      0.9817       1.345       1.731       2.072       2.384       2.602       2.683    
        2.743       2.782       2.795       2.794       2.792    
   4   0.8950      0.7329      0.3481     -0.5730      0.5641       1.188       1.647       2.049       2.326       2.437    
        2.530       2.596       2.600       2.587       2.577    
   5   0.5803      0.4665      0.2654      8.5397E-02  0.5055      0.9702       1.404       1.820       2.122       2.258    
        2.396       2.524       2.476       2.429       2.406    
   6   0.4913      0.4335      0.3591      0.3630      0.5969      0.9298       1.293       1.679       1.980       2.133    
        2.329       2.689       2.412       2.309       2.272    
   7   0.5522      0.5320      0.5212      0.5732      0.7376      0.9811       1.272       1.609       1.893       2.027    
        2.164       2.292       2.244       2.197       2.173    
   8   0.7295      0.7289      0.7448      0.8044      0.9276       1.107       1.334       1.622       1.889       1.998    
        2.091       2.157       2.162       2.149       2.139    
   9    1.057       1.064       1.087       1.139       1.228       1.356       1.525       1.759       2.002       2.087    
        2.149       2.190       2.205       2.206       2.204    
  10    1.647       1.655       1.674       1.710       1.767       1.845       1.949       2.098       2.274       2.322    
        2.356       2.379       2.391       2.395       2.397    
  11    2.658       2.662       2.672       2.689       2.712       2.739       2.763       2.771       2.729       2.718    
        2.720       2.726       2.732       2.735       2.737    
  12    3.575       3.577       3.580       3.585       3.588       3.585       3.568       3.515       3.328       3.254    
        3.231       3.227       3.227       3.229       3.229    
  13    3.960       3.961       3.962       3.964       3.964       3.961       3.950       3.930       3.902       3.875    
        3.862       3.857       3.856       3.857       3.857    
  14    4.409       4.409       4.409       4.409       4.408       4.406       4.404       4.407       4.436       4.438    
        4.436       4.435       4.434       4.434       4.434    
  15    4.893       4.892       4.891       4.890       4.888       4.887       4.887       4.889       4.893       4.894    
        4.894       4.895       4.895       4.895       4.895    
  16    4.404       4.397       4.385       4.367       4.349       4.338       4.345       4.360       4.376       4.387    
        4.394       4.398       4.400       4.400       4.400    
  17    3.955       3.942       3.916       3.878       3.833       3.802       3.826       3.864       3.897       3.921    
        3.935       3.942       3.945       3.946       3.947    
  18    3.582       3.562       3.521       3.456       3.364       3.269       3.353       3.436       3.494       3.531    
        3.553       3.564       3.569       3.570       3.570    
  19    3.314       3.290       3.236       3.143       2.980       2.636       2.967       3.119       3.203       3.252    
        3.279       3.293       3.299       3.301       3.302    
  20    3.176       3.149       3.092       3.001       2.876       2.755       2.862       2.974       3.055       3.107    
        3.137       3.152       3.159       3.161       3.162    

 HEAD WILL BE SAVED ON UNIT   51 AT END OF TIME STEP   12, STRESS PERIOD    2

 DRAWDOWN WILL BE SAVED ON UNIT   52 AT END OF TIME STEP   12, STRESS PERIOD    2
1
  VOLUMETRIC BUDGET FOR ENTIRE MODEL AT END OF TIME STEP   12, STRESS PERIOD   2
  ------------------------------------------------------------------------------

     CUMULATIVE VOLUMES      L**3       RATES FOR THIS TIME STEP      L**3/T
     ------------------                 ------------------------

           IN:                                      IN:
           ---                                      ---
             STORAGE =         683.3799               STORAGE =           0.0000
       CONSTANT HEAD =        9809.5928         CONSTANT HEAD =         778.1044
               WELLS =        3000.0000                 WELLS =         200.0000
       RIVER LEAKAGE =      102922.0469         RIVER LEAKAGE =        4056.9233

            TOTAL IN =      116415.0156              TOTAL IN =        5035.0278

          OUT:                                     OUT:
          ----                                     ----
             STORAGE =      108541.9766               STORAGE =        4485.0269
       CONSTANT HEAD =           0.0000         CONSTANT HEAD =           0.0000
               WELLS =        7200.0000                 WELLS =         550.0000
       RIVER LEAKAGE =         673.0626         RIVER LEAKAGE =           0.0000

           TOTAL OUT =      116415.0391             TOTAL OUT =        5035.0269

            IN - OUT =      -2.3438E-02              IN - OUT =       9.7656E-04

 PERCENT DISCREPANCY =          -0.00     PERCENT DISCREPANCY =           0.00






         TIME SUMMARY AT END OF TIME STEP   12 IN STRESS PERIOD    2
                    SECONDS     MINUTES      HOURS       DAYS        YEARS
                    -----------------------------------------------------------
   TIME STEP LENGTH  86400.      1440.0      24.000      1.0000     2.73785E-03
 STRESS PERIOD TIME 1.03680E+06  17280.      288.00      12.000     3.28542E-02
         TOTAL TIME 1.12320E+06  18720.      312.00      13.000     3.55921E-02
1
 
 SOLVING FOR HEAD 

 OUTPUT CONTROL FOR STRESS PERIOD    2   TIME STEP   13
    SAVE HEAD FOR ALL LAYERS
    SAVE DRAWDOWN FOR ALL LAYERS
    SAVE BUDGET
    PRINT HEAD FOR ALL LAYERS
    PRINT BUDGET
 UBDSV1 SAVING "         STORAGE" ON UNIT   1 AT TIME STEP 13, STRESS PERIOD   2
 UBDSV2 SAVING "   CONSTANT HEAD" ON UNIT   1 AT TIME STEP 13, STRESS PERIOD   2
 UBDSV1 SAVING "FLOW RIGHT FACE " ON UNIT   1 AT TIME STEP 13, STRESS PERIOD   2
 UBDSV1 SAVING "FLOW FRONT FACE " ON UNIT   1 AT TIME STEP 13, STRESS PERIOD   2
1
              HEAD IN LAYER   1 AT END OF TIME STEP  13 IN STRESS PERIOD    2
  ---------------------------------------------------------------------------

            1           2           3           4           5           6           7           8           9          10
           11          12          13          14          15
 ........................................................................................................................
   1    3.390       3.390       3.390       3.390       3.390       3.390       3.390       3.390       3.390       3.390    
        3.390       3.390       3.390       3.390       3.390    
   2    2.373       2.325       2.250       2.212       2.336       2.508       2.679       2.849       2.979       3.023    
        3.054       3.073       3.082       3.084       3.084    
   3    1.529       1.423       1.226       1.028       1.387       1.765       2.100       2.411       2.631       2.713    
        2.774       2.814       2.827       2.827       2.824    
   4   0.9229      0.7676      0.3927     -0.5225      0.6086       1.223       1.675       2.076       2.356       2.469    
        2.564       2.630       2.635       2.622       2.612    
   5   0.6044      0.4966      0.3040      0.1285      0.5444       1.001       1.430       1.848       2.155       2.294    
        2.434       2.563       2.516       2.469       2.446    
   6   0.5118      0.4581      0.3893      0.3962      0.6280      0.9567       1.319       1.710       2.018       2.174    
        2.373       2.735       2.458       2.356       2.319    
   7   0.5742      0.5562      0.5485      0.6024      0.7662       1.009       1.302       1.647       1.941       2.078    
        2.218       2.347       2.300       2.253       2.230    
   8   0.7630      0.7634      0.7808      0.8414      0.9649       1.145       1.376       1.673       1.949       2.061    
        2.156       2.224       2.229       2.217       2.207    
   9    1.115       1.122       1.145       1.197       1.287       1.416       1.589       1.829       2.077       2.163    
        2.227       2.269       2.284       2.286       2.284    
  10    1.735       1.743       1.762       1.798       1.855       1.934       2.038       2.189       2.362       2.410    
        2.444       2.468       2.480       2.484       2.485    
  11    2.760       2.765       2.775       2.791       2.814       2.840       2.863       2.868       2.821       2.809    
        2.811       2.817       2.823       2.826       2.827    
  12    3.656       3.658       3.661       3.665       3.667       3.664       3.647       3.594       3.410       3.336    
        3.313       3.308       3.308       3.310       3.310    
  13    4.024       4.024       4.026       4.027       4.027       4.023       4.012       3.991       3.962       3.934    
        3.921       3.916       3.914       3.914       3.915    
  14    4.446       4.446       4.446       4.446       4.445       4.443       4.440       4.442       4.468       4.470    
        4.467       4.466       4.465       4.465       4.465    
  15    4.900       4.899       4.898       4.896       4.895       4.893       4.894       4.896       4.899       4.900    
        4.901       4.901       4.901       4.902       4.902    
  16    4.441       4.434       4.422       4.404       4.385       4.374       4.382       4.398       4.414       4.427    
        4.435       4.440       4.443       4.444       4.445    
  17    4.020       4.007       3.980       3.942       3.897       3.865       3.891       3.930       3.966       3.991    
        4.008       4.017       4.022       4.025       4.025    
  18    3.669       3.649       3.607       3.541       3.449       3.355       3.441       3.525       3.586       3.627    
        3.651       3.665       3.673       3.676       3.677    
  19    3.417       3.392       3.337       3.244       3.081       2.738       3.070       3.224       3.312       3.364    
        3.396       3.414       3.423       3.427       3.428    
  20    3.286       3.259       3.201       3.109       2.984       2.864       2.972       3.087       3.173       3.229    
        3.263       3.282       3.292       3.297       3.298    

 HEAD WILL BE SAVED ON UNIT   51 AT END OF TIME STEP   13, STRESS PERIOD    2

 DRAWDOWN WILL BE SAVED ON UNIT   52 AT END OF TIME STEP   13, STRESS PERIOD    2
1
  VOLUMETRIC BUDGET FOR ENTIRE MODEL AT END OF TIME STEP   13, STRESS PERIOD   2
  ------------------------------------------------------------------------------

     CUMULATIVE VOLUMES      L**3       RATES FOR THIS TIME STEP      L**3/T
     ------------------                 ------------------------

           IN:                                      IN:
           ---                                      ---
             STORAGE =         683.3799               STORAGE =           0.0000
       CONSTANT HEAD =       10586.6104         CONSTANT HEAD =         777.0172
               WELLS =        3200.0000                 WELLS =         200.0000
       RIVER LEAKAGE =      106730.6172         RIVER LEAKAGE =        3808.5730

            TOTAL IN =      121200.6094              TOTAL IN =        4785.5903

          OUT:                                     OUT:
          ----                                     ----
             STORAGE =      112777.5625               STORAGE =        4235.5898
       CONSTANT HEAD =           0.0000         CONSTANT HEAD =           0.0000
               WELLS =        7750.0000                 WELLS =         550.0000
       RIVER LEAKAGE =         673.0626         RIVER LEAKAGE =           0.0000

           TOTAL OUT =      121200.6250             TOTAL OUT =        4785.5898

            IN - OUT =      -1.5625E-02              IN - OUT =       4.8828E-04

 PERCENT DISCREPANCY =          -0.00     PERCENT DISCREPANCY =           0.00






         TIME SUMMARY AT END OF TIME STEP   13 IN STRESS PERIOD    2
                    SECONDS     MINUTES      HOURS       DAYS        YEARS
                    -----------------------------------------------------------
   TIME STEP LENGTH  86400.      1440.0      24.000      1.0000     2.73785E-03
 STRESS PERIOD TIME 1.12320E+06  18720.      312.00      13.000     3.55921E-02
         TOTAL TIME 1.20960E+06  20160.      336.00      14.000     3.83299E-02
1
 
 SOLVING FOR HEAD 

 OUTPUT CONTROL FOR STRESS PERIOD    2   TIME STEP   14
    SAVE HEAD FOR ALL LAYERS
    SAVE DRAWDOWN FOR ALL LAYERS
    SAVE BUDGET
    PRINT HEAD FOR ALL LAYERS
    PRINT BUDGET
 UBDSV1 SAVING "         STORAGE" ON UNIT   1 AT TIME STEP 14, STRESS PERIOD   2
 UBDSV2 SAVING "   CONSTANT HEAD" ON UNIT   1 AT TIME STEP 14, STRESS PERIOD   2
 UBDSV1 SAVING "FLOW RIGHT FACE " ON UNIT   1 AT TIME STEP 14, STRESS PERIOD   2
 UBDSV1 SAVING "FLOW FRONT FACE " ON UNIT   1 AT TIME STEP 14, STRESS PERIOD   2
1
              HEAD IN LAYER   1 AT END OF TIME STEP  14 IN STRESS PERIOD    2
  ---------------------------------------------------------------------------

            1           2           3           4           5           6           7           8           9          10
           11          12          13          14          15
 ........................................................................................................................
   1    3.420       3.420       3.420       3.420       3.420       3.420       3.420       3.420       3.420       3.420    
        3.420       3.420       3.420       3.420       3.420    
   2    2.403       2.357       2.286       2.249       2.371       2.540       2.709       2.878       3.008       3.053    
        3.084       3.104       3.113       3.115       3.115    
   3    1.559       1.457       1.267       1.073       1.428       1.800       2.130       2.439       2.661       2.744    
        2.806       2.846       2.860       2.860       2.857    
   4   0.9516      0.8020      0.4353     -0.4750      0.6512       1.257       1.704       2.104       2.388       2.502    
        2.598       2.666       2.671       2.658       2.648    
   5   0.6297      0.5270      0.3416      0.1699      0.5824       1.033       1.458       1.878       2.189       2.331    
        2.472       2.603       2.556       2.510       2.487    
   6   0.5341      0.4840      0.4201      0.4297      0.6598      0.9853       1.347       1.743       2.059       2.217    
        2.418       2.781       2.506       2.404       2.367    
   7   0.5986      0.5827      0.5778      0.6334      0.7969       1.039       1.334       1.688       1.990       2.130    
        2.272       2.403       2.357       2.310       2.287    
   8   0.7990      0.8004      0.8192      0.8808       1.005       1.186       1.421       1.726       2.009       2.125    
        2.222       2.291       2.297       2.284       2.275    
   9    1.173       1.181       1.205       1.257       1.348       1.478       1.653       1.899       2.151       2.238    
        2.304       2.346       2.362       2.363       2.362    
  10    1.820       1.828       1.847       1.883       1.940       2.019       2.125       2.276       2.445       2.494    
        2.528       2.552       2.564       2.569       2.570    
  11    2.854       2.858       2.868       2.884       2.906       2.932       2.954       2.958       2.906       2.894    
        2.896       2.902       2.907       2.910       2.912    
  12    3.728       3.730       3.732       3.736       3.738       3.734       3.717       3.664       3.483       3.410    
        3.388       3.382       3.382       3.383       3.384    
  13    4.079       4.080       4.081       4.082       4.082       4.077       4.066       4.045       4.016       3.987    
        3.973       3.968       3.966       3.966       3.967    
  14    4.479       4.479       4.479       4.478       4.477       4.475       4.472       4.473       4.497       4.498    
        4.495       4.493       4.492       4.492       4.492    
  15    4.906       4.905       4.904       4.902       4.900       4.899       4.900       4.901       4.905       4.906    
        4.907       4.907       4.908       4.908       4.908    
  16    4.475       4.468       4.455       4.437       4.419       4.408       4.416       4.433       4.450       4.464    
        4.473       4.479       4.483       4.484       4.485    
  17    4.079       4.066       4.039       4.000       3.955       3.925       3.950       3.992       4.028       4.056    
        4.075       4.086       4.093       4.096       4.097    
  18    3.749       3.729       3.687       3.620       3.528       3.435       3.522       3.608       3.672       3.715    
        3.742       3.759       3.768       3.773       3.775    
  19    3.512       3.486       3.432       3.337       3.175       2.833       3.166       3.322       3.413       3.469    
        3.504       3.525       3.536       3.542       3.545    
  20    3.388       3.361       3.302       3.210       3.085       2.966       3.076       3.194       3.282       3.342    
        3.380       3.402       3.415       3.422       3.424    

 HEAD WILL BE SAVED ON UNIT   51 AT END OF TIME STEP   14, STRESS PERIOD    2

 DRAWDOWN WILL BE SAVED ON UNIT   52 AT END OF TIME STEP   14, STRESS PERIOD    2
1
  VOLUMETRIC BUDGET FOR ENTIRE MODEL AT END OF TIME STEP   14, STRESS PERIOD   2
  ------------------------------------------------------------------------------

     CUMULATIVE VOLUMES      L**3       RATES FOR THIS TIME STEP      L**3/T
     ------------------                 ------------------------

           IN:                                      IN:
           ---                                      ---
             STORAGE =         683.3799               STORAGE =           0.0000
       CONSTANT HEAD =       11362.1191         CONSTANT HEAD =         775.5089
               WELLS =        3400.0000                 WELLS =         200.0000
       RIVER LEAKAGE =      110315.8672         RIVER LEAKAGE =        3585.2534

            TOTAL IN =      125761.3672              TOTAL IN =        4560.7622

          OUT:                                     OUT:
          ----                                     ----
             STORAGE =      116788.3281               STORAGE =        4010.7617
       CONSTANT HEAD =           0.0000         CONSTANT HEAD =           0.0000
               WELLS =        8300.0000                 WELLS =         550.0000
       RIVER LEAKAGE =         673.0626         RIVER LEAKAGE =           0.0000

           TOTAL OUT =      125761.3906             TOTAL OUT =        4560.7617

            IN - OUT =      -2.3438E-02              IN - OUT =       4.8828E-04

 PERCENT DISCREPANCY =          -0.00     PERCENT DISCREPANCY =           0.00






         TIME SUMMARY AT END OF TIME STEP   14 IN STRESS PERIOD    2
                    SECONDS     MINUTES      HOURS       DAYS        YEARS
                    -----------------------------------------------------------
   TIME STEP LENGTH  86400.      1440.0      24.000      1.0000     2.73785E-03
 STRESS PERIOD TIME 1.20960E+06  20160.      336.00      14.000     3.83299E-02
         TOTAL TIME 1.29600E+06  21600.      360.00      15.000     4.10678E-02
1
 
 SOLVING FOR HEAD 

 OUTPUT CONTROL FOR STRESS PERIOD    2   TIME STEP   15
    SAVE HEAD FOR ALL LAYERS
    SAVE DRAWDOWN FOR ALL LAYERS
    SAVE BUDGET
    PRINT HEAD FOR ALL LAYERS
    PRINT BUDGET
 UBDSV1 SAVING "         STORAGE" ON UNIT   1 AT TIME STEP 15, STRESS PERIOD   2
 UBDSV2 SAVING "   CONSTANT HEAD" ON UNIT   1 AT TIME STEP 15, STRESS PERIOD   2
 UBDSV1 SAVING "FLOW RIGHT FACE " ON UNIT   1 AT TIME STEP 15, STRESS PERIOD   2
 UBDSV1 SAVING "FLOW FRONT FACE " ON UNIT   1 AT TIME STEP 15, STRESS PERIOD   2
1
              HEAD IN LAYER   1 AT END OF TIME STEP  15 IN STRESS PERIOD    2
  ---------------------------------------------------------------------------

            1           2           3           4           5           6           7           8           9          10
           11          12          13          14          15
 ........................................................................................................................
   1    3.450       3.450       3.450       3.450       3.450       3.450       3.450       3.450       3.450       3.450    
        3.450       3.450       3.450       3.450       3.450    
   2    2.434       2.390       2.321       2.286       2.407       2.572       2.739       2.907       3.038       3.083    
        3.115       3.135       3.144       3.147       3.147    
   3    1.590       1.492       1.307       1.115       1.468       1.834       2.159       2.468       2.692       2.775    
        2.838       2.879       2.893       2.893       2.891    
   4   0.9809      0.8363      0.4763     -0.4299      0.6922       1.291       1.734       2.134       2.420       2.536    
        2.633       2.702       2.708       2.695       2.686    
   5   0.6560      0.5577      0.3784      0.2098      0.6197       1.065       1.487       1.909       2.225       2.369    
        2.512       2.644       2.598       2.552       2.529    
   6   0.5580      0.5111      0.4516      0.4635      0.6923       1.015       1.377       1.778       2.100       2.262    
        2.464       2.828       2.554       2.453       2.417    
   7   0.6252      0.6111      0.6089      0.6661      0.8294       1.072       1.369       1.730       2.040       2.183    
        2.327       2.459       2.414       2.368       2.345    
   8   0.8371      0.8395      0.8597      0.9223       1.047       1.229       1.468       1.780       2.070       2.188    
        2.286       2.356       2.363       2.351       2.342    
   9    1.232       1.240       1.265       1.318       1.409       1.540       1.718       1.969       2.222       2.311    
        2.378       2.421       2.437       2.439       2.437    
  10    1.901       1.909       1.928       1.965       2.021       2.101       2.207       2.359       2.525       2.573    
        2.608       2.632       2.645       2.649       2.650    
  11    2.939       2.943       2.953       2.968       2.990       3.016       3.038       3.040       2.985       2.973    
        2.974       2.981       2.986       2.989       2.990    
  12    3.791       3.793       3.796       3.799       3.801       3.797       3.779       3.727       3.550       3.478    
        3.456       3.450       3.450       3.451       3.451    
  13    4.128       4.129       4.130       4.131       4.130       4.125       4.114       4.093       4.063       4.035    
        4.020       4.015       4.013       4.013       4.013    
  14    4.508       4.508       4.508       4.507       4.506       4.503       4.500       4.500       4.523       4.523    
        4.520       4.518       4.517       4.517       4.517    
  15    4.911       4.910       4.909       4.908       4.906       4.905       4.905       4.907       4.910       4.912    
        4.912       4.913       4.913       4.913       4.913    
  16    4.506       4.499       4.486       4.468       4.450       4.439       4.447       4.465       4.483       4.498    
        4.508       4.515       4.519       4.521       4.522    
  17    4.134       4.120       4.093       4.054       4.010       3.979       4.006       4.048       4.087       4.116    
        4.136       4.149       4.157       4.161       4.163    
  18    3.823       3.803       3.760       3.694       3.602       3.509       3.597       3.685       3.751       3.796    
        3.826       3.845       3.856       3.862       3.865    
  19    3.600       3.574       3.519       3.425       3.262       2.922       3.256       3.414       3.507       3.566    
        3.603       3.627       3.641       3.648       3.651    
  20    3.483       3.455       3.397       3.304       3.180       3.062       3.173       3.293       3.384       3.446    
        3.487       3.513       3.528       3.536       3.540    

 HEAD WILL BE SAVED ON UNIT   51 AT END OF TIME STEP   15, STRESS PERIOD    2

 DRAWDOWN WILL BE SAVED ON UNIT   52 AT END OF TIME STEP   15, STRESS PERIOD    2
1
  VOLUMETRIC BUDGET FOR ENTIRE MODEL AT END OF TIME STEP   15, STRESS PERIOD   2
  ------------------------------------------------------------------------------

     CUMULATIVE VOLUMES      L**3       RATES FOR THIS TIME STEP      L**3/T
     ------------------                 ------------------------

           IN:                                      IN:
           ---                                      ---
             STORAGE =         683.3799               STORAGE =           0.0000
       CONSTANT HEAD =       12135.7412         CONSTANT HEAD =         773.6218
               WELLS =        3600.0000                 WELLS =         200.0000
       RIVER LEAKAGE =      113699.0625         RIVER LEAKAGE =        3383.1956

            TOTAL IN =      130118.1875              TOTAL IN =        4356.8174

          OUT:                                     OUT:
          ----                                     ----
             STORAGE =      120595.1406               STORAGE =        3806.8162
       CONSTANT HEAD =           0.0000         CONSTANT HEAD =           0.0000
               WELLS =        8850.0000                 WELLS =         550.0000
       RIVER LEAKAGE =         673.0626         RIVER LEAKAGE =           0.0000

           TOTAL OUT =      130118.2031             TOTAL OUT =        4356.8164

            IN - OUT =      -1.5625E-02              IN - OUT =       9.7656E-04

 PERCENT DISCREPANCY =          -0.00     PERCENT DISCREPANCY =           0.00






         TIME SUMMARY AT END OF TIME STEP   15 IN STRESS PERIOD    2
                    SECONDS     MINUTES      HOURS       DAYS        YEARS
                    -----------------------------------------------------------
   TIME STEP LENGTH  86400.      1440.0      24.000      1.0000     2.73785E-03
 STRESS PERIOD TIME 1.29600E+06  21600.      360.00      15.000     4.10678E-02
         TOTAL TIME 1.38240E+06  23040.      384.00      16.000     4.38056E-02
1
 
 SOLVING FOR HEAD 

 OUTPUT CONTROL FOR STRESS PERIOD    2   TIME STEP   16
    SAVE HEAD FOR ALL LAYERS
    SAVE DRAWDOWN FOR ALL LAYERS
    SAVE BUDGET
    PRINT HEAD FOR ALL LAYERS
    PRINT BUDGET
 UBDSV1 SAVING "         STORAGE" ON UNIT   1 AT TIME STEP 16, STRESS PERIOD   2
 UBDSV2 SAVING "   CONSTANT HEAD" ON UNIT   1 AT TIME STEP 16, STRESS PERIOD   2
 UBDSV1 SAVING "FLOW RIGHT FACE " ON UNIT   1 AT TIME STEP 16, STRESS PERIOD   2
 UBDSV1 SAVING "FLOW FRONT FACE " ON UNIT   1 AT TIME STEP 16, STRESS PERIOD   2
1
              HEAD IN LAYER   1 AT END OF TIME STEP  16 IN STRESS PERIOD    2
  ---------------------------------------------------------------------------

            1           2           3           4           5           6           7           8           9          10
           11          12          13          14          15
 ........................................................................................................................
   1    3.480       3.480       3.480       3.480       3.480       3.480       3.480       3.480       3.480       3.480    
        3.480       3.480       3.480       3.480       3.480    
   2    2.464       2.423       2.356       2.322       2.442       2.605       2.769       2.937       3.069       3.114    
        3.146       3.167       3.176       3.178       3.178    
   3    1.621       1.526       1.346       1.156       1.507       1.868       2.190       2.497       2.723       2.808    
        2.871       2.913       2.927       2.928       2.926    
   4    1.011      0.8703      0.5159     -0.3868      0.7320       1.326       1.764       2.164       2.453       2.571    
        2.669       2.739       2.745       2.733       2.724    
   5   0.6833      0.5888      0.4146      0.2488      0.6565       1.098       1.517       1.941       2.262       2.408    
        2.553       2.686       2.641       2.595       2.573    
   6   0.5835      0.5394      0.4837      0.4977      0.7256       1.047       1.408       1.814       2.143       2.307    
        2.511       2.876       2.603       2.503       2.466    
   7   0.6538      0.6415      0.6417      0.7003      0.8638       1.106       1.407       1.774       2.090       2.236    
        2.381       2.515       2.471       2.426       2.403    
   8   0.8771      0.8804      0.9019      0.9655       1.090       1.275       1.517       1.835       2.130       2.250    
        2.350       2.421       2.429       2.418       2.409    
   9    1.291       1.300       1.325       1.378       1.470       1.602       1.783       2.037       2.292       2.382    
        2.449       2.494       2.510       2.512       2.511    
  10    1.979       1.987       2.006       2.042       2.099       2.179       2.286       2.438       2.600       2.649    
        2.684       2.708       2.721       2.726       2.727    
  11    3.017       3.021       3.030       3.046       3.067       3.092       3.115       3.116       3.059       3.046    
        3.047       3.054       3.059       3.062       3.063    
  12    3.848       3.850       3.852       3.855       3.857       3.853       3.835       3.784       3.611       3.540    
        3.518       3.512       3.512       3.513       3.513    
  13    4.172       4.173       4.173       4.174       4.173       4.168       4.157       4.135       4.106       4.078    
        4.063       4.058       4.056       4.056       4.056    
  14    4.533       4.533       4.533       4.532       4.531       4.528       4.525       4.524       4.546       4.545    
        4.542       4.540       4.539       4.539       4.539    
  15    4.916       4.915       4.914       4.912       4.911       4.910       4.910       4.912       4.915       4.916    
        4.917       4.918       4.918       4.918       4.918    
  16    4.535       4.528       4.515       4.497       4.478       4.468       4.477       4.495       4.513       4.529    
        4.540       4.547       4.552       4.555       4.556    
  17    4.184       4.170       4.144       4.105       4.060       4.030       4.058       4.101       4.140       4.171    
        4.193       4.207       4.216       4.221       4.223    
  18    3.891       3.871       3.829       3.762       3.671       3.578       3.667       3.757       3.824       3.871    
        3.903       3.924       3.937       3.944       3.947    
  19    3.681       3.655       3.600       3.506       3.344       3.005       3.340       3.499       3.594       3.655    
        3.695       3.721       3.737       3.745       3.749    
  20    3.571       3.543       3.484       3.392       3.268       3.151       3.264       3.385       3.478       3.543    
        3.587       3.615       3.632       3.642       3.646    

 HEAD WILL BE SAVED ON UNIT   51 AT END OF TIME STEP   16, STRESS PERIOD    2

 DRAWDOWN WILL BE SAVED ON UNIT   52 AT END OF TIME STEP   16, STRESS PERIOD    2
1
  VOLUMETRIC BUDGET FOR ENTIRE MODEL AT END OF TIME STEP   16, STRESS PERIOD   2
  ------------------------------------------------------------------------------

     CUMULATIVE VOLUMES      L**3       RATES FOR THIS TIME STEP      L**3/T
     ------------------                 ------------------------

           IN:                                      IN:
           ---                                      ---
             STORAGE =         683.3799               STORAGE =           0.0000
       CONSTANT HEAD =       12907.1338         CONSTANT HEAD =         771.3925
               WELLS =        3800.0000                 WELLS =         200.0000
       RIVER LEAKAGE =      116898.5391         RIVER LEAKAGE =        3199.4768

            TOTAL IN =      134289.0469              TOTAL IN =        4170.8691

          OUT:                                     OUT:
          ----                                     ----
             STORAGE =      124216.0078               STORAGE =        3620.8679
       CONSTANT HEAD =           0.0000         CONSTANT HEAD =           0.0000
               WELLS =        9400.0000                 WELLS =         550.0000
       RIVER LEAKAGE =         673.0626         RIVER LEAKAGE =           0.0000

           TOTAL OUT =      134289.0625             TOTAL OUT =        4170.8682

            IN - OUT =      -1.5625E-02              IN - OUT =       9.7656E-04

 PERCENT DISCREPANCY =          -0.00     PERCENT DISCREPANCY =           0.00






         TIME SUMMARY AT END OF TIME STEP   16 IN STRESS PERIOD    2
                    SECONDS     MINUTES      HOURS       DAYS        YEARS
                    -----------------------------------------------------------
   TIME STEP LENGTH  86400.      1440.0      24.000      1.0000     2.73785E-03
 STRESS PERIOD TIME 1.38240E+06  23040.      384.00      16.000     4.38056E-02
         TOTAL TIME 1.46880E+06  24480.      408.00      17.000     4.65435E-02
1
 
 SOLVING FOR HEAD 

 OUTPUT CONTROL FOR STRESS PERIOD    2   TIME STEP   17
    SAVE HEAD FOR ALL LAYERS
    SAVE DRAWDOWN FOR ALL LAYERS
    SAVE BUDGET
    PRINT HEAD FOR ALL LAYERS
    PRINT BUDGET
 UBDSV1 SAVING "         STORAGE" ON UNIT   1 AT TIME STEP 17, STRESS PERIOD   2
 UBDSV2 SAVING "   CONSTANT HEAD" ON UNIT   1 AT TIME STEP 17, STRESS PERIOD   2
 UBDSV1 SAVING "FLOW RIGHT FACE " ON UNIT   1 AT TIME STEP 17, STRESS PERIOD   2
 UBDSV1 SAVING "FLOW FRONT FACE " ON UNIT   1 AT TIME STEP 17, STRESS PERIOD   2
1
              HEAD IN LAYER   1 AT END OF TIME STEP  17 IN STRESS PERIOD    2
  ---------------------------------------------------------------------------

            1           2           3           4           5           6           7           8           9          10
           11          12          13          14          15
 ........................................................................................................................
   1    3.510       3.510       3.510       3.510       3.510       3.510       3.510       3.510       3.510       3.510    
        3.510       3.510       3.510       3.510       3.510    
   2    2.495       2.455       2.391       2.357       2.476       2.637       2.800       2.967       3.100       3.145    
        3.178       3.199       3.208       3.211       3.211    
   3    1.652       1.560       1.384       1.196       1.545       1.902       2.221       2.528       2.755       2.840    
        2.905       2.947       2.962       2.963       2.961    
   4    1.041      0.9041      0.5545     -0.3452      0.7708       1.360       1.795       2.196       2.488       2.607    
        2.706       2.777       2.784       2.772       2.763    
   5   0.7115      0.6202      0.4504      0.2869      0.6930       1.131       1.549       1.975       2.300       2.448    
        2.594       2.728       2.684       2.639       2.616    
   6   0.6105      0.5688      0.5164      0.5323      0.7596       1.079       1.442       1.852       2.186       2.352    
        2.558       2.925       2.653       2.553       2.517    
   7   0.6843      0.6736      0.6759      0.7359      0.8997       1.142       1.446       1.819       2.141       2.289    
        2.436       2.572       2.528       2.483       2.461    
   8   0.9186      0.9228      0.9456       1.010       1.136       1.321       1.567       1.891       2.189       2.311    
        2.413       2.485       2.493       2.483       2.474    
   9    1.350       1.359       1.385       1.439       1.531       1.664       1.848       2.105       2.360       2.450    
        2.518       2.564       2.581       2.583       2.581    
  10    2.053       2.061       2.080       2.117       2.174       2.254       2.362       2.513       2.672       2.720    
        2.756       2.781       2.794       2.798       2.800    
  11    3.088       3.092       3.101       3.117       3.138       3.163       3.185       3.186       3.127       3.114    
        3.116       3.122       3.128       3.131       3.132    
  12    3.899       3.900       3.903       3.906       3.907       3.903       3.886       3.836       3.666       3.597    
        3.575       3.570       3.570       3.570       3.571    
  13    4.211       4.211       4.212       4.213       4.212       4.207       4.195       4.174       4.145       4.117    
        4.103       4.097       4.095       4.095       4.095    
  14    4.556       4.556       4.556       4.555       4.554       4.551       4.547       4.547       4.566       4.566    
        4.562       4.560       4.560       4.559       4.559    
  15    4.920       4.920       4.918       4.917       4.915       4.914       4.915       4.916       4.919       4.921    
        4.922       4.922       4.923       4.923       4.923    
  16    4.561       4.554       4.541       4.523       4.505       4.495       4.504       4.522       4.541       4.557    
        4.569       4.577       4.582       4.585       4.587    
  17    4.230       4.217       4.190       4.151       4.107       4.077       4.105       4.150       4.190       4.222    
        4.245       4.260       4.270       4.276       4.279    
  18    3.954       3.934       3.892       3.825       3.734       3.643       3.733       3.823       3.892       3.941    
        3.974       3.997       4.011       4.019       4.023    
  19    3.755       3.730       3.675       3.581       3.420       3.082       3.418       3.578       3.675       3.738    
        3.780       3.808       3.825       3.835       3.839    
  20    3.652       3.624       3.566       3.474       3.350       3.234       3.348       3.471       3.566       3.633    
        3.679       3.709       3.728       3.739       3.744    

 HEAD WILL BE SAVED ON UNIT   51 AT END OF TIME STEP   17, STRESS PERIOD    2

 DRAWDOWN WILL BE SAVED ON UNIT   52 AT END OF TIME STEP   17, STRESS PERIOD    2
1
  VOLUMETRIC BUDGET FOR ENTIRE MODEL AT END OF TIME STEP   17, STRESS PERIOD   2
  ------------------------------------------------------------------------------

     CUMULATIVE VOLUMES      L**3       RATES FOR THIS TIME STEP      L**3/T
     ------------------                 ------------------------

           IN:                                      IN:
           ---                                      ---
             STORAGE =         683.3799               STORAGE =           0.0000
       CONSTANT HEAD =       13675.9883         CONSTANT HEAD =         768.8544
               WELLS =        4000.0000                 WELLS =         200.0000
       RIVER LEAKAGE =      119930.3125         RIVER LEAKAGE =        3031.7729

            TOTAL IN =      138289.6875              TOTAL IN =        4000.6274

          OUT:                                     OUT:
          ----                                     ----
             STORAGE =      127666.6328               STORAGE =        3450.6257
       CONSTANT HEAD =           0.0000         CONSTANT HEAD =           0.0000
               WELLS =        9950.0000                 WELLS =         550.0000
       RIVER LEAKAGE =         673.0626         RIVER LEAKAGE =           0.0000

           TOTAL OUT =      138289.6875             TOTAL OUT =        4000.6257

            IN - OUT =           0.0000              IN - OUT =       1.7090E-03

 PERCENT DISCREPANCY =           0.00     PERCENT DISCREPANCY =           0.00






         TIME SUMMARY AT END OF TIME STEP   17 IN STRESS PERIOD    2
                    SECONDS     MINUTES      HOURS       DAYS        YEARS
                    -----------------------------------------------------------
   TIME STEP LENGTH  86400.      1440.0      24.000      1.0000     2.73785E-03
 STRESS PERIOD TIME 1.46880E+06  24480.      408.00      17.000     4.65435E-02
         TOTAL TIME 1.55520E+06  25920.      432.00      18.000     4.92813E-02
1
 
 SOLVING FOR HEAD 

 OUTPUT CONTROL FOR STRESS PERIOD    2   TIME STEP   18
    SAVE HEAD FOR ALL LAYERS
    SAVE DRAWDOWN FOR ALL LAYERS
    SAVE BUDGET
    PRINT HEAD FOR ALL LAYERS
    PRINT BUDGET
 UBDSV1 SAVING "         STORAGE" ON UNIT   1 AT TIME STEP 18, STRESS PERIOD   2
 UBDSV2 SAVING "   CONSTANT HEAD" ON UNIT   1 AT TIME STEP 18, STRESS PERIOD   2
 UBDSV1 SAVING "FLOW RIGHT FACE " ON UNIT   1 AT TIME STEP 18, STRESS PERIOD   2
 UBDSV1 SAVING "FLOW FRONT FACE " ON UNIT   1 AT TIME STEP 18, STRESS PERIOD   2
1
              HEAD IN LAYER   1 AT END OF TIME STEP  18 IN STRESS PERIOD    2
  ---------------------------------------------------------------------------

            1           2           3           4           5           6           7           8           9          10
           11          12          13          14          15
 ........................................................................................................................
   1    3.540       3.540       3.540       3.540       3.540       3.540       3.540       3.540       3.540       3.540    
        3.540       3.540       3.540       3.540       3.540    
   2    2.526       2.487       2.425       2.392       2.510       2.669       2.830       2.997       3.131       3.177    
        3.210       3.231       3.240       3.243       3.243    
   3    1.684       1.594       1.421       1.235       1.582       1.936       2.252       2.559       2.788       2.874    
        2.939       2.982       2.997       2.998       2.996    
   4    1.072      0.9378      0.5923     -0.3049      0.8088       1.394       1.827       2.228       2.523       2.643    
        2.743       2.815       2.822       2.811       2.802    
   5   0.7404      0.6520      0.4859      0.3244      0.7292       1.164       1.581       2.010       2.339       2.488    
        2.636       2.771       2.728       2.683       2.661    
   6   0.6388      0.5993      0.5498      0.5674      0.7944       1.113       1.476       1.891       2.230       2.399    
        2.606       2.973       2.703       2.604       2.568    
   7   0.7165      0.7072      0.7115      0.7729      0.9370       1.180       1.486       1.865       2.192       2.342    
        2.491       2.627       2.584       2.540       2.518    
   8   0.9614      0.9664      0.9903       1.056       1.182       1.369       1.617       1.947       2.248       2.372    
        2.474       2.548       2.557       2.546       2.538    
   9    1.409       1.418       1.444       1.499       1.591       1.726       1.911       2.171       2.425       2.517    
        2.585       2.631       2.649       2.651       2.650    
  10    2.123       2.131       2.151       2.188       2.245       2.326       2.434       2.585       2.740       2.789    
        2.824       2.850       2.863       2.868       2.869    
  11    3.153       3.157       3.166       3.182       3.203       3.228       3.250       3.250       3.190       3.178    
        3.180       3.187       3.192       3.196       3.197    
  12    3.945       3.946       3.948       3.951       3.953       3.949       3.932       3.883       3.718       3.650    
        3.628       3.623       3.623       3.624       3.624    
  13    4.246       4.246       4.247       4.247       4.246       4.242       4.230       4.209       4.180       4.152    
        4.139       4.133       4.131       4.131       4.131    
  14    4.577       4.577       4.576       4.575       4.574       4.571       4.567       4.567       4.585       4.584    
        4.581       4.579       4.578       4.578       4.578    
  15    4.924       4.924       4.923       4.921       4.919       4.918       4.919       4.920       4.923       4.925    
        4.926       4.926       4.927       4.927       4.927    
  16    4.585       4.578       4.565       4.547       4.529       4.519       4.529       4.548       4.567       4.584    
        4.596       4.605       4.610       4.614       4.615    
  17    4.273       4.260       4.233       4.194       4.150       4.121       4.150       4.195       4.236       4.269    
        4.293       4.309       4.320       4.327       4.329    
  18    4.012       3.992       3.950       3.884       3.794       3.703       3.793       3.885       3.955       4.005    
        4.040       4.064       4.079       4.088       4.092    
  19    3.825       3.799       3.744       3.651       3.490       3.154       3.490       3.652       3.750       3.815    
        3.858       3.888       3.906       3.917       3.922    
  20    3.727       3.699       3.641       3.549       3.427       3.312       3.426       3.550       3.647       3.716    
        3.764       3.796       3.816       3.828       3.833    

 HEAD WILL BE SAVED ON UNIT   51 AT END OF TIME STEP   18, STRESS PERIOD    2

 DRAWDOWN WILL BE SAVED ON UNIT   52 AT END OF TIME STEP   18, STRESS PERIOD    2
1
  VOLUMETRIC BUDGET FOR ENTIRE MODEL AT END OF TIME STEP   18, STRESS PERIOD   2
  ------------------------------------------------------------------------------

     CUMULATIVE VOLUMES      L**3       RATES FOR THIS TIME STEP      L**3/T
     ------------------                 ------------------------

           IN:                                      IN:
           ---                                      ---
             STORAGE =         683.3799               STORAGE =           0.0000
       CONSTANT HEAD =       14442.0273         CONSTANT HEAD =         766.0391
               WELLS =        4200.0000                 WELLS =         200.0000
       RIVER LEAKAGE =      122808.5000         RIVER LEAKAGE =        2878.1904

            TOTAL IN =      142133.9062              TOTAL IN =        3844.2295

          OUT:                                     OUT:
          ----                                     ----
             STORAGE =      130960.8594               STORAGE =        3294.2288
       CONSTANT HEAD =           0.0000         CONSTANT HEAD =           0.0000
               WELLS =       10500.0000                 WELLS =         550.0000
       RIVER LEAKAGE =         673.0626         RIVER LEAKAGE =           0.0000

           TOTAL OUT =      142133.9219             TOTAL OUT =        3844.2288

            IN - OUT =      -1.5625E-02              IN - OUT =       7.3242E-04

 PERCENT DISCREPANCY =          -0.00     PERCENT DISCREPANCY =           0.00






         TIME SUMMARY AT END OF TIME STEP   18 IN STRESS PERIOD    2
                    SECONDS     MINUTES      HOURS       DAYS        YEARS
                    -----------------------------------------------------------
   TIME STEP LENGTH  86400.      1440.0      24.000      1.0000     2.73785E-03
 STRESS PERIOD TIME 1.55520E+06  25920.      432.00      18.000     4.92813E-02
         TOTAL TIME 1.64160E+06  27360.      456.00      19.000     5.20192E-02
1
 
 SOLVING FOR HEAD 

 OUTPUT CONTROL FOR STRESS PERIOD    2   TIME STEP   19
    SAVE HEAD FOR ALL LAYERS
    SAVE DRAWDOWN FOR ALL LAYERS
    SAVE BUDGET
    PRINT HEAD FOR ALL LAYERS
    PRINT BUDGET
 UBDSV1 SAVING "         STORAGE" ON UNIT   1 AT TIME STEP 19, STRESS PERIOD   2
 UBDSV2 SAVING "   CONSTANT HEAD" ON UNIT   1 AT TIME STEP 19, STRESS PERIOD   2
 UBDSV1 SAVING "FLOW RIGHT FACE " ON UNIT   1 AT TIME STEP 19, STRESS PERIOD   2
 UBDSV1 SAVING "FLOW FRONT FACE " ON UNIT   1 AT TIME STEP 19, STRESS PERIOD   2
1
              HEAD IN LAYER   1 AT END OF TIME STEP  19 IN STRESS PERIOD    2
  ---------------------------------------------------------------------------

            1           2           3           4           5           6           7           8           9          10
           11          12          13          14          15
 ........................................................................................................................
   1    3.570       3.570       3.570       3.570       3.570       3.570       3.570       3.570       3.570       3.570    
        3.570       3.570       3.570       3.570       3.570    
   2    2.558       2.520       2.459       2.427       2.544       2.701       2.861       3.028       3.162       3.208    
        3.242       3.263       3.273       3.276       3.276    
   3    1.715       1.628       1.457       1.273       1.618       1.970       2.284       2.591       2.821       2.908    
        2.974       3.017       3.033       3.034       3.032    
   4    1.103      0.9715      0.6293     -0.2655      0.8461       1.429       1.860       2.262       2.559       2.680    
        2.781       2.854       2.862       2.851       2.842    
   5   0.7702      0.6841      0.5212      0.3615      0.7654       1.199       1.615       2.046       2.378       2.529    
        2.678       2.814       2.772       2.728       2.706    
   6   0.6684      0.6308      0.5838      0.6030      0.8298       1.148       1.513       1.931       2.275       2.445    
        2.654       3.022       2.753       2.654       2.618    
   7   0.7502      0.7422      0.7482      0.8109      0.9756       1.220       1.528       1.912       2.243       2.395    
        2.545       2.683       2.641       2.597       2.575    
   8    1.005       1.011       1.036       1.102       1.230       1.418       1.669       2.002       2.307       2.431    
        2.535       2.609       2.619       2.609       2.600    
   9    1.466       1.476       1.503       1.558       1.651       1.787       1.974       2.235       2.489       2.581    
        2.650       2.696       2.714       2.717       2.716    
  10    2.190       2.199       2.219       2.255       2.313       2.394       2.503       2.653       2.805       2.853    
        2.889       2.915       2.929       2.934       2.935    
  11    3.213       3.217       3.227       3.242       3.263       3.289       3.311       3.311       3.250       3.238    
        3.240       3.247       3.253       3.256       3.258    
  12    3.986       3.988       3.990       3.993       3.994       3.991       3.974       3.926       3.765       3.699    
        3.678       3.673       3.673       3.674       3.674    
  13    4.277       4.278       4.278       4.279       4.278       4.273       4.262       4.241       4.213       4.185    
        4.172       4.166       4.165       4.165       4.165    
  14    4.595       4.595       4.595       4.594       4.592       4.590       4.586       4.585       4.602       4.601    
        4.598       4.596       4.595       4.595       4.595    
  15    4.928       4.927       4.926       4.925       4.923       4.922       4.922       4.924       4.927       4.929    
        4.929       4.930       4.931       4.931       4.931    
  16    4.608       4.601       4.588       4.570       4.552       4.542       4.552       4.571       4.591       4.608    
        4.621       4.630       4.636       4.640       4.641    
  17    4.313       4.299       4.272       4.234       4.190       4.162       4.191       4.237       4.279       4.312    
        4.337       4.355       4.366       4.373       4.376    
  18    4.066       4.046       4.004       3.938       3.848       3.758       3.849       3.942       4.013       4.064    
        4.101       4.125       4.142       4.151       4.156    
  19    3.889       3.863       3.809       3.716       3.556       3.220       3.557       3.720       3.819       3.885    
        3.931       3.961       3.981       3.993       3.998    
  20    3.796       3.769       3.711       3.620       3.498       3.383       3.499       3.624       3.722       3.793    
        3.842       3.875       3.897       3.910       3.916    

 HEAD WILL BE SAVED ON UNIT   51 AT END OF TIME STEP   19, STRESS PERIOD    2

 DRAWDOWN WILL BE SAVED ON UNIT   52 AT END OF TIME STEP   19, STRESS PERIOD    2
1
  VOLUMETRIC BUDGET FOR ENTIRE MODEL AT END OF TIME STEP   19, STRESS PERIOD   2
  ------------------------------------------------------------------------------

     CUMULATIVE VOLUMES      L**3       RATES FOR THIS TIME STEP      L**3/T
     ------------------                 ------------------------

           IN:                                      IN:
           ---                                      ---
             STORAGE =         683.3799               STORAGE =           0.0000
       CONSTANT HEAD =       15205.0039         CONSTANT HEAD =         762.9769
               WELLS =        4400.0000                 WELLS =         200.0000
       RIVER LEAKAGE =      125545.6562         RIVER LEAKAGE =        2737.1560

            TOTAL IN =      145834.0312              TOTAL IN =        3700.1328

          OUT:                                     OUT:
          ----                                     ----
             STORAGE =      134111.0000               STORAGE =        3150.1343
       CONSTANT HEAD =           0.0000         CONSTANT HEAD =           0.0000
               WELLS =       11050.0000                 WELLS =         550.0000
       RIVER LEAKAGE =         673.0626         RIVER LEAKAGE =           0.0000

           TOTAL OUT =      145834.0625             TOTAL OUT =        3700.1343

            IN - OUT =      -3.1250E-02              IN - OUT =      -1.4648E-03

 PERCENT DISCREPANCY =          -0.00     PERCENT DISCREPANCY =          -0.00






         TIME SUMMARY AT END OF TIME STEP   19 IN STRESS PERIOD    2
                    SECONDS     MINUTES      HOURS       DAYS        YEARS
                    -----------------------------------------------------------
   TIME STEP LENGTH  86400.      1440.0      24.000      1.0000     2.73785E-03
 STRESS PERIOD TIME 1.64160E+06  27360.      456.00      19.000     5.20192E-02
         TOTAL TIME 1.72800E+06  28800.      480.00      20.000     5.47570E-02
1
 
 SOLVING FOR HEAD 

 OUTPUT CONTROL FOR STRESS PERIOD    2   TIME STEP   20
    SAVE HEAD FOR ALL LAYERS
    SAVE DRAWDOWN FOR ALL LAYERS
    SAVE BUDGET
    PRINT HEAD FOR ALL LAYERS
    PRINT BUDGET
 UBDSV1 SAVING "         STORAGE" ON UNIT   1 AT TIME STEP 20, STRESS PERIOD   2
 UBDSV2 SAVING "   CONSTANT HEAD" ON UNIT   1 AT TIME STEP 20, STRESS PERIOD   2
 UBDSV1 SAVING "FLOW RIGHT FACE " ON UNIT   1 AT TIME STEP 20, STRESS PERIOD   2
 UBDSV1 SAVING "FLOW FRONT FACE " ON UNIT   1 AT TIME STEP 20, STRESS PERIOD   2
1
              HEAD IN LAYER   1 AT END OF TIME STEP  20 IN STRESS PERIOD    2
  ---------------------------------------------------------------------------

            1           2           3           4           5           6           7           8           9          10
           11          12          13          14          15
 ........................................................................................................................
   1    3.600       3.600       3.600       3.600       3.600       3.600       3.600       3.600       3.600       3.600    
        3.600       3.600       3.600       3.600       3.600    
   2    2.589       2.552       2.492       2.460       2.577       2.733       2.892       3.059       3.194       3.240    
        3.274       3.296       3.306       3.309       3.309    
   3    1.747       1.662       1.493       1.309       1.654       2.004       2.316       2.623       2.855       2.942    
        3.009       3.053       3.069       3.070       3.069    
   4    1.135       1.005      0.6658     -0.2269      0.8830       1.463       1.893       2.296       2.595       2.717    
        2.820       2.893       2.902       2.891       2.883    
   5   0.8006      0.7166      0.5564      0.3984      0.8015       1.233       1.649       2.083       2.419       2.571    
        2.721       2.858       2.816       2.773       2.751    
   6   0.6992      0.6632      0.6185      0.6390      0.8660       1.184       1.550       1.973       2.320       2.492    
        2.702       3.071       2.803       2.705       2.669    
   7   0.7852      0.7784      0.7860      0.8499       1.015       1.260       1.571       1.959       2.295       2.448    
        2.599       2.737       2.696       2.653       2.632    
   8    1.050       1.056       1.082       1.150       1.278       1.467       1.721       2.058       2.364       2.489    
        2.594       2.669       2.679       2.670       2.662    
   9    1.523       1.533       1.561       1.616       1.710       1.847       2.036       2.298       2.550       2.643    
        2.712       2.759       2.778       2.781       2.780    
  10    2.254       2.263       2.283       2.320       2.378       2.460       2.569       2.718       2.867       2.915    
        2.951       2.977       2.991       2.997       2.998    
  11    3.269       3.273       3.282       3.298       3.319       3.345       3.367       3.367       3.306       3.294    
        3.297       3.304       3.310       3.314       3.315    
  12    4.024       4.025       4.028       4.030       4.032       4.029       4.012       3.966       3.809       3.744    
        3.724       3.719       3.719       3.720       3.721    
  13    4.306       4.306       4.307       4.307       4.306       4.302       4.291       4.271       4.243       4.216    
        4.202       4.197       4.196       4.196       4.196    
  14    4.612       4.612       4.611       4.611       4.609       4.606       4.603       4.601       4.618       4.617    
        4.614       4.612       4.611       4.611       4.611    
  15    4.931       4.931       4.930       4.928       4.926       4.925       4.926       4.927       4.931       4.932    
        4.933       4.934       4.934       4.934       4.935    
  16    4.628       4.621       4.608       4.591       4.573       4.563       4.573       4.593       4.613       4.631    
        4.644       4.653       4.660       4.664       4.666    
  17    4.349       4.336       4.309       4.271       4.228       4.199       4.229       4.275       4.318       4.353    
        4.378       4.396       4.408       4.416       4.419    
  18    4.116       4.096       4.054       3.989       3.899       3.810       3.902       3.995       4.067       4.119    
        4.157       4.182       4.199       4.209       4.214    
  19    3.948       3.923       3.868       3.776       3.617       3.282       3.619       3.783       3.883       3.951    
        3.997       4.029       4.050       4.062       4.068    
  20    3.861       3.833       3.775       3.685       3.563       3.450       3.566       3.693       3.792       3.864    
        3.914       3.949       3.972       3.985       3.991    

 HEAD WILL BE SAVED ON UNIT   51 AT END OF TIME STEP   20, STRESS PERIOD    2

 DRAWDOWN WILL BE SAVED ON UNIT   52 AT END OF TIME STEP   20, STRESS PERIOD    2
1
  VOLUMETRIC BUDGET FOR ENTIRE MODEL AT END OF TIME STEP   20, STRESS PERIOD   2
  ------------------------------------------------------------------------------

     CUMULATIVE VOLUMES      L**3       RATES FOR THIS TIME STEP      L**3/T
     ------------------                 ------------------------

           IN:                                      IN:
           ---                                      ---
             STORAGE =         683.3799               STORAGE =           0.0000
       CONSTANT HEAD =       15964.7021         CONSTANT HEAD =         759.6979
               WELLS =        4600.0000                 WELLS =         200.0000
       RIVER LEAKAGE =      128153.0000         RIVER LEAKAGE =        2607.3423

            TOTAL IN =      149401.0781              TOTAL IN =        3567.0400

          OUT:                                     OUT:
          ----                                     ----
             STORAGE =      137128.0469               STORAGE =        3017.0430
       CONSTANT HEAD =           0.0000         CONSTANT HEAD =           0.0000
               WELLS =       11600.0000                 WELLS =         550.0000
       RIVER LEAKAGE =         673.0626         RIVER LEAKAGE =           0.0000

           TOTAL OUT =      149401.1094             TOTAL OUT =        3567.0430

            IN - OUT =      -3.1250E-02              IN - OUT =      -2.9297E-03

 PERCENT DISCREPANCY =          -0.00     PERCENT DISCREPANCY =          -0.00






         TIME SUMMARY AT END OF TIME STEP   20 IN STRESS PERIOD    2
                    SECONDS     MINUTES      HOURS       DAYS        YEARS
                    -----------------------------------------------------------
   TIME STEP LENGTH  86400.      1440.0      24.000      1.0000     2.73785E-03
 STRESS PERIOD TIME 1.72800E+06  28800.      480.00      20.000     5.47570E-02
         TOTAL TIME 1.81440E+06  30240.      504.00      21.000     5.74949E-02
1
 
 SOLVING FOR HEAD 

 OUTPUT CONTROL FOR STRESS PERIOD    2   TIME STEP   21
    SAVE HEAD FOR ALL LAYERS
    SAVE DRAWDOWN FOR ALL LAYERS
    SAVE BUDGET
    PRINT HEAD FOR ALL LAYERS
    PRINT BUDGET
 UBDSV1 SAVING "         STORAGE" ON UNIT   1 AT TIME STEP 21, STRESS PERIOD   2
 UBDSV2 SAVING "   CONSTANT HEAD" ON UNIT   1 AT TIME STEP 21, STRESS PERIOD   2
 UBDSV1 SAVING "FLOW RIGHT FACE " ON UNIT   1 AT TIME STEP 21, STRESS PERIOD   2
 UBDSV1 SAVING "FLOW FRONT FACE " ON UNIT   1 AT TIME STEP 21, STRESS PERIOD   2
1
              HEAD IN LAYER   1 AT END OF TIME STEP  21 IN STRESS PERIOD    2
  ---------------------------------------------------------------------------

            1           2           3           4           5           6           7           8           9          10
           11          12          13          14          15
 ........................................................................................................................
   1    3.630       3.630       3.630       3.630       3.630       3.630       3.630       3.630       3.630       3.630    
        3.630       3.630       3.630       3.630       3.630    
   2    2.620       2.584       2.525       2.494       2.610       2.765       2.924       3.090       3.226       3.273    
        3.307       3.329       3.339       3.342       3.342    
   3    1.779       1.695       1.528       1.346       1.689       2.037       2.349       2.656       2.889       2.977    
        3.044       3.089       3.105       3.107       3.105    
   4    1.166       1.039      0.7019     -0.1890      0.9195       1.498       1.926       2.331       2.632       2.755    
        2.859       2.932       2.942       2.932       2.923    
   5   0.8317      0.7495      0.5917      0.4351      0.8378       1.268       1.684       2.120       2.459       2.613    
        2.764       2.902       2.861       2.818       2.797    
   6   0.7310      0.6965      0.6537      0.6756      0.9028       1.221       1.588       2.015       2.366       2.539    
        2.750       3.120       2.852       2.755       2.720    
   7   0.8214      0.8156      0.8247      0.8898       1.056       1.302       1.615       2.007       2.346       2.500    
        2.652       2.792       2.751       2.709       2.687    
   8    1.095       1.102       1.129       1.197       1.326       1.517       1.773       2.113       2.420       2.546    
        2.652       2.727       2.738       2.729       2.721    
   9    1.579       1.589       1.617       1.674       1.768       1.906       2.096       2.359       2.610       2.702    
        2.773       2.820       2.839       2.843       2.842    
  10    2.316       2.324       2.345       2.382       2.440       2.522       2.632       2.780       2.927       2.974    
        3.011       3.037       3.051       3.057       3.058    
  11    3.320       3.325       3.334       3.350       3.371       3.397       3.419       3.420       3.359       3.347    
        3.351       3.358       3.365       3.368       3.369    
  12    4.059       4.060       4.062       4.065       4.067       4.064       4.048       4.003       3.849       3.786    
        3.767       3.763       3.763       3.764       3.765    
  13    4.332       4.332       4.333       4.333       4.332       4.328       4.317       4.298       4.270       4.244    
        4.231       4.226       4.225       4.225       4.225    
  14    4.627       4.627       4.627       4.626       4.624       4.622       4.618       4.617       4.633       4.632    
        4.628       4.627       4.626       4.626       4.626    
  15    4.934       4.934       4.933       4.931       4.929       4.928       4.929       4.931       4.934       4.935    
        4.936       4.937       4.937       4.938       4.938    
  16    4.647       4.641       4.628       4.610       4.592       4.583       4.593       4.613       4.634       4.652    
        4.665       4.675       4.682       4.686       4.688    
  17    4.383       4.370       4.343       4.305       4.262       4.234       4.265       4.311       4.355       4.390    
        4.416       4.435       4.447       4.455       4.458    
  18    4.162       4.142       4.101       4.035       3.946       3.857       3.950       4.044       4.116       4.170    
        4.208       4.235       4.252       4.263       4.268    
  19    4.003       3.978       3.924       3.831       3.673       3.340       3.677       3.841       3.943       4.011    
        4.059       4.091       4.113       4.126       4.132    
  20    3.920       3.893       3.835       3.745       3.624       3.512       3.629       3.756       3.856       3.929    
        3.981       4.017       4.040       4.054       4.061    

 HEAD WILL BE SAVED ON UNIT   51 AT END OF TIME STEP   21, STRESS PERIOD    2

 DRAWDOWN WILL BE SAVED ON UNIT   52 AT END OF TIME STEP   21, STRESS PERIOD    2
1
  VOLUMETRIC BUDGET FOR ENTIRE MODEL AT END OF TIME STEP   21, STRESS PERIOD   2
  ------------------------------------------------------------------------------

     CUMULATIVE VOLUMES      L**3       RATES FOR THIS TIME STEP      L**3/T
     ------------------                 ------------------------

           IN:                                      IN:
           ---                                      ---
             STORAGE =         683.3799               STORAGE =           0.0000
       CONSTANT HEAD =       16720.9336         CONSTANT HEAD =         756.2311
               WELLS =        4800.0000                 WELLS =         200.0000
       RIVER LEAKAGE =      130640.6094         RIVER LEAKAGE =        2487.6130

            TOTAL IN =      152844.9219              TOTAL IN =        3443.8442

          OUT:                                     OUT:
          ----                                     ----
             STORAGE =      140021.8906               STORAGE =        2893.8455
       CONSTANT HEAD =           0.0000         CONSTANT HEAD =           0.0000
               WELLS =       12150.0000                 WELLS =         550.0000
       RIVER LEAKAGE =         673.0626         RIVER LEAKAGE =           0.0000

           TOTAL OUT =      152844.9531             TOTAL OUT =        3443.8455

            IN - OUT =      -3.1250E-02              IN - OUT =      -1.2207E-03

 PERCENT DISCREPANCY =          -0.00     PERCENT DISCREPANCY =          -0.00






         TIME SUMMARY AT END OF TIME STEP   21 IN STRESS PERIOD    2
                    SECONDS     MINUTES      HOURS       DAYS        YEARS
                    -----------------------------------------------------------
   TIME STEP LENGTH  86400.      1440.0      24.000      1.0000     2.73785E-03
 STRESS PERIOD TIME 1.81440E+06  30240.      504.00      21.000     5.74949E-02
         TOTAL TIME 1.90080E+06  31680.      528.00      22.000     6.02327E-02
1
 
 SOLVING FOR HEAD 

 OUTPUT CONTROL FOR STRESS PERIOD    2   TIME STEP   22
    SAVE HEAD FOR ALL LAYERS
    SAVE DRAWDOWN FOR ALL LAYERS
    SAVE BUDGET
    PRINT HEAD FOR ALL LAYERS
    PRINT BUDGET
 UBDSV1 SAVING "         STORAGE" ON UNIT   1 AT TIME STEP 22, STRESS PERIOD   2
 UBDSV2 SAVING "   CONSTANT HEAD" ON UNIT   1 AT TIME STEP 22, STRESS PERIOD   2
 UBDSV1 SAVING "FLOW RIGHT FACE " ON UNIT   1 AT TIME STEP 22, STRESS PERIOD   2
 UBDSV1 SAVING "FLOW FRONT FACE " ON UNIT   1 AT TIME STEP 22, STRESS PERIOD   2
1
              HEAD IN LAYER   1 AT END OF TIME STEP  22 IN STRESS PERIOD    2
  ---------------------------------------------------------------------------

            1           2           3           4           5           6           7           8           9          10
           11          12          13          14          15
 ........................................................................................................................
   1    3.660       3.660       3.660       3.660       3.660       3.660       3.660       3.660       3.660       3.660    
        3.660       3.660       3.660       3.660       3.660    
   2    2.652       2.616       2.558       2.527       2.643       2.797       2.955       3.122       3.258       3.305    
        3.339       3.361       3.372       3.375       3.375    
   3    1.811       1.728       1.563       1.382       1.724       2.071       2.381       2.689       2.923       3.012    
        3.080       3.125       3.141       3.144       3.142    
   4    1.198       1.072      0.7376     -0.1515      0.9558       1.533       1.960       2.366       2.669       2.794    
        2.898       2.972       2.982       2.972       2.964    
   5   0.8634      0.7827      0.6270      0.4718      0.8741       1.304       1.720       2.159       2.500       2.655    
        2.807       2.946       2.906       2.864       2.842    
   6   0.7638      0.7305      0.6895      0.7127      0.9402       1.259       1.627       2.057       2.411       2.586    
        2.798       3.168       2.902       2.805       2.770    
   7   0.8586      0.8537      0.8642      0.9305       1.097       1.345       1.660       2.055       2.396       2.552    
        2.705       2.845       2.805       2.763       2.742    
   8    1.140       1.148       1.176       1.245       1.375       1.567       1.825       2.167       2.475       2.602    
        2.708       2.785       2.796       2.787       2.780    
   9    1.634       1.644       1.673       1.730       1.825       1.964       2.155       2.419       2.668       2.760    
        2.831       2.879       2.898       2.902       2.901    
  10    2.374       2.383       2.403       2.441       2.499       2.582       2.692       2.840       2.983       3.030    
        3.067       3.094       3.108       3.114       3.116    
  11    3.368       3.373       3.382       3.398       3.419       3.445       3.468       3.469       3.408       3.398    
        3.401       3.409       3.416       3.420       3.421    
  12    4.090       4.092       4.094       4.097       4.099       4.096       4.081       4.037       3.887       3.826    
        3.807       3.803       3.804       3.805       3.806    
  13    4.356       4.356       4.357       4.357       4.356       4.352       4.342       4.323       4.296       4.270    
        4.258       4.253       4.252       4.252       4.252    
  14    4.641       4.641       4.640       4.640       4.638       4.636       4.632       4.631       4.646       4.645    
        4.642       4.640       4.640       4.640       4.640    
  15    4.937       4.937       4.936       4.934       4.932       4.931       4.932       4.934       4.937       4.938    
        4.939       4.940       4.941       4.941       4.941    
  16    4.665       4.658       4.645       4.628       4.610       4.601       4.612       4.632       4.653       4.671    
        4.685       4.695       4.702       4.706       4.708    
  17    4.414       4.401       4.375       4.337       4.294       4.267       4.297       4.344       4.389       4.424    
        4.451       4.470       4.483       4.491       4.495    
  18    4.205       4.185       4.144       4.079       3.990       3.902       3.995       4.089       4.163       4.217    
        4.256       4.283       4.301       4.312       4.318    
  19    4.054       4.029       3.975       3.883       3.725       3.393       3.731       3.896       3.998       4.067    
        4.115       4.149       4.171       4.185       4.191    
  20    3.976       3.948       3.891       3.801       3.681       3.569       3.687       3.815       3.916       3.990    
        4.042       4.079       4.103       4.118       4.125    

 HEAD WILL BE SAVED ON UNIT   51 AT END OF TIME STEP   22, STRESS PERIOD    2

 DRAWDOWN WILL BE SAVED ON UNIT   52 AT END OF TIME STEP   22, STRESS PERIOD    2
1
  VOLUMETRIC BUDGET FOR ENTIRE MODEL AT END OF TIME STEP   22, STRESS PERIOD   2
  ------------------------------------------------------------------------------

     CUMULATIVE VOLUMES      L**3       RATES FOR THIS TIME STEP      L**3/T
     ------------------                 ------------------------

           IN:                                      IN:
           ---                                      ---
             STORAGE =         683.3799               STORAGE =           0.0000
       CONSTANT HEAD =       17473.5371         CONSTANT HEAD =         752.6038
               WELLS =        5000.0000                 WELLS =         200.0000
       RIVER LEAKAGE =      133017.5938         RIVER LEAKAGE =        2376.9846

            TOTAL IN =      156174.5156              TOTAL IN =        3329.5884

          OUT:                                     OUT:
          ----                                     ----
             STORAGE =      142801.4688               STORAGE =        2779.5854
       CONSTANT HEAD =           0.0000         CONSTANT HEAD =           0.0000
               WELLS =       12700.0000                 WELLS =         550.0000
       RIVER LEAKAGE =         673.0626         RIVER LEAKAGE =           0.0000

           TOTAL OUT =      156174.5312             TOTAL OUT =        3329.5854

            IN - OUT =      -1.5625E-02              IN - OUT =       2.9297E-03

 PERCENT DISCREPANCY =          -0.00     PERCENT DISCREPANCY =           0.00






         TIME SUMMARY AT END OF TIME STEP   22 IN STRESS PERIOD    2
                    SECONDS     MINUTES      HOURS       DAYS        YEARS
                    -----------------------------------------------------------
   TIME STEP LENGTH  86400.      1440.0      24.000      1.0000     2.73785E-03
 STRESS PERIOD TIME 1.90080E+06  31680.      528.00      22.000     6.02327E-02
         TOTAL TIME 1.98720E+06  33120.      552.00      23.000     6.29706E-02
1
 
 SOLVING FOR HEAD 

 OUTPUT CONTROL FOR STRESS PERIOD    2   TIME STEP   23
    SAVE HEAD FOR ALL LAYERS
    SAVE DRAWDOWN FOR ALL LAYERS
    SAVE BUDGET
    PRINT HEAD FOR ALL LAYERS
    PRINT BUDGET
 UBDSV1 SAVING "         STORAGE" ON UNIT   1 AT TIME STEP 23, STRESS PERIOD   2
 UBDSV2 SAVING "   CONSTANT HEAD" ON UNIT   1 AT TIME STEP 23, STRESS PERIOD   2
 UBDSV1 SAVING "FLOW RIGHT FACE " ON UNIT   1 AT TIME STEP 23, STRESS PERIOD   2
 UBDSV1 SAVING "FLOW FRONT FACE " ON UNIT   1 AT TIME STEP 23, STRESS PERIOD   2
1
              HEAD IN LAYER   1 AT END OF TIME STEP  23 IN STRESS PERIOD    2
  ---------------------------------------------------------------------------

            1           2           3           4           5           6           7           8           9          10
           11          12          13          14          15
 ........................................................................................................................
   1    3.690       3.690       3.690       3.690       3.690       3.690       3.690       3.690       3.690       3.690    
        3.690       3.690       3.690       3.690       3.690    
   2    2.683       2.648       2.590       2.560       2.675       2.829       2.987       3.153       3.290       3.338    
        3.372       3.394       3.405       3.408       3.409    
   3    1.844       1.762       1.598       1.417       1.759       2.105       2.414       2.723       2.958       3.047    
        3.116       3.161       3.178       3.180       3.179    
   4    1.231       1.106      0.7731     -0.1144      0.9919       1.568       1.995       2.402       2.707       2.832    
        2.937       3.012       3.023       3.013       3.005    
   5   0.8957      0.8163      0.6624      0.5084      0.9107       1.340       1.757       2.197       2.542       2.698    
        2.851       2.990       2.951       2.909       2.887    
   6   0.7974      0.7653      0.7259      0.7502      0.9782       1.297       1.667       2.100       2.457       2.633    
        2.846       3.216       2.951       2.855       2.820    
   7   0.8967      0.8927      0.9044      0.9717       1.139       1.388       1.705       2.104       2.446       2.603    
        2.757       2.898       2.859       2.817       2.796    
   8    1.186       1.194       1.223       1.293       1.424       1.617       1.877       2.221       2.529       2.657    
        2.764       2.840       2.852       2.844       2.837    
   9    1.687       1.699       1.727       1.785       1.881       2.021       2.213       2.477       2.724       2.816    
        2.887       2.936       2.955       2.959       2.959    
  10    2.429       2.438       2.459       2.497       2.556       2.639       2.750       2.897       3.037       3.084    
        3.122       3.149       3.163       3.169       3.171    
  11    3.413       3.418       3.427       3.443       3.465       3.491       3.514       3.515       3.455       3.445    
        3.449       3.458       3.465       3.468       3.470    
  12    4.119       4.121       4.123       4.126       4.128       4.126       4.111       4.068       3.923       3.864    
        3.845       3.842       3.843       3.844       3.845    
  13    4.377       4.378       4.379       4.379       4.379       4.375       4.364       4.346       4.320       4.295    
        4.283       4.278       4.277       4.277       4.277    
  14    4.654       4.653       4.653       4.652       4.651       4.649       4.645       4.644       4.659       4.658    
        4.655       4.653       4.652       4.652       4.653    
  15    4.940       4.939       4.938       4.937       4.935       4.934       4.935       4.936       4.939       4.941    
        4.942       4.943       4.943       4.944       4.944    
  16    4.681       4.675       4.662       4.645       4.627       4.618       4.629       4.649       4.671       4.689    
        4.703       4.713       4.720       4.725       4.727    
  17    4.443       4.430       4.404       4.366       4.324       4.297       4.328       4.375       4.420       4.456    
        4.483       4.503       4.516       4.524       4.528    
  18    4.244       4.225       4.183       4.119       4.031       3.943       4.036       4.131       4.205       4.260    
        4.300       4.327       4.346       4.358       4.363    
  19    4.101       4.076       4.022       3.931       3.773       3.442       3.780       3.946       4.048       4.119    
        4.168       4.202       4.225       4.239       4.245    
  20    4.027       3.999       3.942       3.853       3.733       3.622       3.741       3.869       3.971       4.046    
        4.099       4.137       4.161       4.177       4.184    

 HEAD WILL BE SAVED ON UNIT   51 AT END OF TIME STEP   23, STRESS PERIOD    2

 DRAWDOWN WILL BE SAVED ON UNIT   52 AT END OF TIME STEP   23, STRESS PERIOD    2
1
  VOLUMETRIC BUDGET FOR ENTIRE MODEL AT END OF TIME STEP   23, STRESS PERIOD   2
  ------------------------------------------------------------------------------

     CUMULATIVE VOLUMES      L**3       RATES FOR THIS TIME STEP      L**3/T
     ------------------                 ------------------------

           IN:                                      IN:
           ---                                      ---
             STORAGE =         683.3799               STORAGE =           0.0000
       CONSTANT HEAD =       18222.3809         CONSTANT HEAD =         748.8438
               WELLS =        5200.0000                 WELLS =         200.0000
       RIVER LEAKAGE =      135292.1875         RIVER LEAKAGE =        2274.5901

            TOTAL IN =      159397.9531              TOTAL IN =        3223.4338

          OUT:                                     OUT:
          ----                                     ----
             STORAGE =      145474.9062               STORAGE =        2673.4333
       CONSTANT HEAD =           0.0000         CONSTANT HEAD =           0.0000
               WELLS =       13250.0000                 WELLS =         550.0000
       RIVER LEAKAGE =         673.0626         RIVER LEAKAGE =           0.0000

           TOTAL OUT =      159397.9688             TOTAL OUT =        3223.4333

            IN - OUT =      -1.5625E-02              IN - OUT =       4.8828E-04

 PERCENT DISCREPANCY =          -0.00     PERCENT DISCREPANCY =           0.00






         TIME SUMMARY AT END OF TIME STEP   23 IN STRESS PERIOD    2
                    SECONDS     MINUTES      HOURS       DAYS        YEARS
                    -----------------------------------------------------------
   TIME STEP LENGTH  86400.      1440.0      24.000      1.0000     2.73785E-03
 STRESS PERIOD TIME 1.98720E+06  33120.      552.00      23.000     6.29706E-02
         TOTAL TIME 2.07360E+06  34560.      576.00      24.000     6.57084E-02
1
 
 SOLVING FOR HEAD 

 OUTPUT CONTROL FOR STRESS PERIOD    2   TIME STEP   24
    SAVE HEAD FOR ALL LAYERS
    SAVE DRAWDOWN FOR ALL LAYERS
    SAVE BUDGET
    PRINT HEAD FOR ALL LAYERS
    PRINT BUDGET
 UBDSV1 SAVING "         STORAGE" ON UNIT   1 AT TIME STEP 24, STRESS PERIOD   2
 UBDSV2 SAVING "   CONSTANT HEAD" ON UNIT   1 AT TIME STEP 24, STRESS PERIOD   2
 UBDSV1 SAVING "FLOW RIGHT FACE " ON UNIT   1 AT TIME STEP 24, STRESS PERIOD   2
 UBDSV1 SAVING "FLOW FRONT FACE " ON UNIT   1 AT TIME STEP 24, STRESS PERIOD   2
1
              HEAD IN LAYER   1 AT END OF TIME STEP  24 IN STRESS PERIOD    2
  ---------------------------------------------------------------------------

            1           2           3           4           5           6           7           8           9          10
           11          12          13          14          15
 ........................................................................................................................
   1    3.720       3.720       3.720       3.720       3.720       3.720       3.720       3.720       3.720       3.720    
        3.720       3.720       3.720       3.720       3.720    
   2    2.714       2.680       2.623       2.593       2.708       2.861       3.018       3.185       3.322       3.370    
        3.405       3.428       3.438       3.442       3.442    
   3    1.876       1.795       1.632       1.452       1.794       2.138       2.448       2.756       2.993       3.083    
        3.152       3.198       3.215       3.218       3.216    
   4    1.263       1.140      0.8085     -7.7592E-02   1.028       1.603       2.030       2.438       2.745       2.871    
        2.977       3.052       3.063       3.054       3.046    
   5   0.9285      0.8503      0.6980      0.5451      0.9474       1.377       1.794       2.237       2.583       2.740    
        2.894       3.034       2.995       2.954       2.933    
   6   0.8319      0.8007      0.7627      0.7882       1.017       1.336       1.708       2.143       2.503       2.679    
        2.893       3.264       3.000       2.904       2.869    
   7   0.9355      0.9322      0.9451       1.013       1.182       1.432       1.751       2.152       2.496       2.654    
        2.808       2.949       2.911       2.870       2.849    
   8    1.232       1.241       1.270       1.341       1.473       1.668       1.929       2.275       2.583       2.710    
        2.818       2.895       2.907       2.899       2.892    
   9    1.740       1.751       1.781       1.839       1.936       2.076       2.270       2.533       2.778       2.870    
        2.942       2.991       3.011       3.015       3.015    
  10    2.482       2.492       2.513       2.551       2.610       2.694       2.805       2.951       3.089       3.136    
        3.173       3.201       3.216       3.222       3.224    
  11    3.455       3.459       3.469       3.485       3.507       3.534       3.558       3.559       3.500       3.491    
        3.495       3.504       3.511       3.515       3.517    
  12    4.146       4.148       4.150       4.153       4.156       4.154       4.140       4.098       3.957       3.899    
        3.881       3.878       3.879       3.881       3.882    
  13    4.397       4.398       4.399       4.400       4.399       4.395       4.385       4.367       4.342       4.318    
        4.306       4.302       4.301       4.301       4.301    
  14    4.665       4.665       4.665       4.664       4.663       4.661       4.657       4.656       4.671       4.669    
        4.667       4.665       4.665       4.665       4.665    
  15    4.942       4.942       4.941       4.939       4.937       4.937       4.937       4.939       4.942       4.944    
        4.945       4.945       4.946       4.946       4.947    
  16    4.697       4.690       4.677       4.660       4.643       4.634       4.645       4.665       4.687       4.705    
        4.720       4.730       4.737       4.742       4.744    
  17    4.470       4.457       4.431       4.394       4.351       4.325       4.356       4.404       4.449       4.485    
        4.513       4.533       4.546       4.555       4.559    
  18    4.281       4.261       4.220       4.156       4.068       3.981       4.075       4.170       4.245       4.300    
        4.340       4.368       4.388       4.399       4.405    
  19    4.145       4.120       4.066       3.975       3.818       3.487       3.826       3.992       4.095       4.166    
        4.216       4.251       4.274       4.288       4.295    
  20    4.074       4.047       3.990       3.901       3.782       3.671       3.790       3.919       4.022       4.097    
        4.152       4.189       4.215       4.231       4.238    

 HEAD WILL BE SAVED ON UNIT   51 AT END OF TIME STEP   24, STRESS PERIOD    2

 DRAWDOWN WILL BE SAVED ON UNIT   52 AT END OF TIME STEP   24, STRESS PERIOD    2
1
  VOLUMETRIC BUDGET FOR ENTIRE MODEL AT END OF TIME STEP   24, STRESS PERIOD   2
  ------------------------------------------------------------------------------

     CUMULATIVE VOLUMES      L**3       RATES FOR THIS TIME STEP      L**3/T
     ------------------                 ------------------------

           IN:                                      IN:
           ---                                      ---
             STORAGE =         683.3799               STORAGE =           0.0000
       CONSTANT HEAD =       18967.3574         CONSTANT HEAD =         744.9758
               WELLS =        5400.0000                 WELLS =         200.0000
       RIVER LEAKAGE =      137471.8594         RIVER LEAKAGE =        2179.6787

            TOTAL IN =      162522.5938              TOTAL IN =        3124.6545

          OUT:                                     OUT:
          ----                                     ----
             STORAGE =      148049.5625               STORAGE =        2574.6528
       CONSTANT HEAD =           0.0000         CONSTANT HEAD =           0.0000
               WELLS =       13800.0000                 WELLS =         550.0000
       RIVER LEAKAGE =         673.0626         RIVER LEAKAGE =           0.0000

           TOTAL OUT =      162522.6250             TOTAL OUT =        3124.6528

            IN - OUT =      -3.1250E-02              IN - OUT =       1.7090E-03

 PERCENT DISCREPANCY =          -0.00     PERCENT DISCREPANCY =           0.00






         TIME SUMMARY AT END OF TIME STEP   24 IN STRESS PERIOD    2
                    SECONDS     MINUTES      HOURS       DAYS        YEARS
                    -----------------------------------------------------------
   TIME STEP LENGTH  86400.      1440.0      24.000      1.0000     2.73785E-03
 STRESS PERIOD TIME 2.07360E+06  34560.      576.00      24.000     6.57084E-02
         TOTAL TIME 2.16000E+06  36000.      600.00      25.000     6.84463E-02
1
 
 SOLVING FOR HEAD 

 OUTPUT CONTROL FOR STRESS PERIOD    2   TIME STEP   25
    SAVE HEAD FOR ALL LAYERS
    SAVE DRAWDOWN FOR ALL LAYERS
    SAVE BUDGET
    PRINT HEAD FOR ALL LAYERS
    PRINT BUDGET
 UBDSV1 SAVING "         STORAGE" ON UNIT   1 AT TIME STEP 25, STRESS PERIOD   2
 UBDSV2 SAVING "   CONSTANT HEAD" ON UNIT   1 AT TIME STEP 25, STRESS PERIOD   2
 UBDSV1 SAVING "FLOW RIGHT FACE " ON UNIT   1 AT TIME STEP 25, STRESS PERIOD   2
 UBDSV1 SAVING "FLOW FRONT FACE " ON UNIT   1 AT TIME STEP 25, STRESS PERIOD   2
1
              HEAD IN LAYER   1 AT END OF TIME STEP  25 IN STRESS PERIOD    2
  ---------------------------------------------------------------------------

            1           2           3           4           5           6           7           8           9          10
           11          12          13          14          15
 ........................................................................................................................
   1    3.750       3.750       3.750       3.750       3.750       3.750       3.750       3.750       3.750       3.750    
        3.750       3.750       3.750       3.750       3.750    
   2    2.746       2.711       2.655       2.626       2.740       2.893       3.050       3.217       3.355       3.403    
        3.438       3.461       3.472       3.475       3.476    
   3    1.908       1.828       1.666       1.487       1.828       2.172       2.481       2.791       3.028       3.119    
        3.188       3.234       3.252       3.255       3.254    
   4    1.296       1.173      0.8437     -4.0940E-02   1.064       1.638       2.065       2.475       2.784       2.910    
        3.017       3.093       3.104       3.095       3.087    
   5   0.9618      0.8846      0.7337      0.5820      0.9844       1.414       1.832       2.277       2.625       2.783    
        2.938       3.078       3.040       2.999       2.978    
   6   0.8670      0.8368      0.8000      0.8266       1.056       1.376       1.749       2.187       2.548       2.726    
        2.940       3.312       3.048       2.953       2.918    
   7   0.9749      0.9724      0.9863       1.056       1.225       1.476       1.797       2.200       2.546       2.704    
        2.859       3.000       2.963       2.922       2.901    
   8    1.278       1.287       1.318       1.389       1.522       1.718       1.981       2.327       2.635       2.762    
        2.870       2.948       2.961       2.953       2.946    
   9    1.791       1.803       1.833       1.892       1.989       2.131       2.325       2.588       2.831       2.923    
        2.994       3.044       3.064       3.069       3.068    
  10    2.533       2.543       2.564       2.603       2.662       2.746       2.858       3.003       3.139       3.186    
        3.223       3.251       3.266       3.273       3.275    
  11    3.494       3.499       3.508       3.525       3.547       3.574       3.598       3.601       3.542       3.534    
        3.539       3.548       3.555       3.559       3.561    
  12    4.171       4.173       4.175       4.179       4.181       4.180       4.166       4.126       3.988       3.932    
        3.916       3.913       3.914       3.916       3.916    
  13    4.416       4.417       4.418       4.418       4.418       4.414       4.405       4.388       4.363       4.340    
        4.328       4.324       4.324       4.324       4.324    
  14    4.676       4.676       4.676       4.675       4.674       4.672       4.669       4.668       4.682       4.680    
        4.678       4.676       4.676       4.676       4.676    
  15    4.945       4.944       4.943       4.941       4.940       4.939       4.940       4.941       4.944       4.946    
        4.947       4.948       4.948       4.949       4.949    
  16    4.711       4.704       4.691       4.674       4.657       4.648       4.659       4.680       4.702       4.720    
        4.735       4.746       4.753       4.758       4.760    
  17    4.495       4.482       4.456       4.419       4.377       4.350       4.382       4.430       4.475       4.512    
        4.540       4.560       4.574       4.583       4.587    
  18    4.315       4.295       4.255       4.190       4.103       4.016       4.110       4.206       4.281       4.337    
        4.377       4.406       4.426       4.438       4.444    
  19    4.185       4.160       4.107       4.016       3.860       3.530       3.868       4.035       4.139       4.210    
        4.261       4.296       4.320       4.334       4.341    
  20    4.118       4.090       4.034       3.945       3.827       3.717       3.836       3.966       4.069       4.145    
        4.200       4.238       4.264       4.280       4.288    

 HEAD WILL BE SAVED ON UNIT   51 AT END OF TIME STEP   25, STRESS PERIOD    2

 DRAWDOWN WILL BE SAVED ON UNIT   52 AT END OF TIME STEP   25, STRESS PERIOD    2
1
  VOLUMETRIC BUDGET FOR ENTIRE MODEL AT END OF TIME STEP   25, STRESS PERIOD   2
  ------------------------------------------------------------------------------

     CUMULATIVE VOLUMES      L**3       RATES FOR THIS TIME STEP      L**3/T
     ------------------                 ------------------------

           IN:                                      IN:
           ---                                      ---
             STORAGE =         683.3799               STORAGE =           0.0000
       CONSTANT HEAD =       19708.3809         CONSTANT HEAD =         741.0237
               WELLS =        5600.0000                 WELLS =         200.0000
       RIVER LEAKAGE =      139563.4375         RIVER LEAKAGE =        2091.5745

            TOTAL IN =      165555.2031              TOTAL IN =        3032.5981

          OUT:                                     OUT:
          ----                                     ----
             STORAGE =      150532.1562               STORAGE =        2482.5979
       CONSTANT HEAD =           0.0000         CONSTANT HEAD =           0.0000
               WELLS =       14350.0000                 WELLS =         550.0000
       RIVER LEAKAGE =         673.0626         RIVER LEAKAGE =           0.0000

           TOTAL OUT =      165555.2188             TOTAL OUT =        3032.5979

            IN - OUT =      -1.5625E-02              IN - OUT =       2.4414E-04

 PERCENT DISCREPANCY =          -0.00     PERCENT DISCREPANCY =           0.00






         TIME SUMMARY AT END OF TIME STEP   25 IN STRESS PERIOD    2
                    SECONDS     MINUTES      HOURS       DAYS        YEARS
                    -----------------------------------------------------------
   TIME STEP LENGTH  86400.      1440.0      24.000      1.0000     2.73785E-03
 STRESS PERIOD TIME 2.16000E+06  36000.      600.00      25.000     6.84463E-02
         TOTAL TIME 2.24640E+06  37440.      624.00      26.000     7.11841E-02
1
 
 SOLVING FOR HEAD 

 OUTPUT CONTROL FOR STRESS PERIOD    2   TIME STEP   26
    SAVE HEAD FOR ALL LAYERS
    SAVE DRAWDOWN FOR ALL LAYERS
    SAVE BUDGET
    PRINT HEAD FOR ALL LAYERS
    PRINT BUDGET
 UBDSV1 SAVING "         STORAGE" ON UNIT   1 AT TIME STEP 26, STRESS PERIOD   2
 UBDSV2 SAVING "   CONSTANT HEAD" ON UNIT   1 AT TIME STEP 26, STRESS PERIOD   2
 UBDSV1 SAVING "FLOW RIGHT FACE " ON UNIT   1 AT TIME STEP 26, STRESS PERIOD   2
 UBDSV1 SAVING "FLOW FRONT FACE " ON UNIT   1 AT TIME STEP 26, STRESS PERIOD   2
1
              HEAD IN LAYER   1 AT END OF TIME STEP  26 IN STRESS PERIOD    2
  ---------------------------------------------------------------------------

            1           2           3           4           5           6           7           8           9          10
           11          12          13          14          15
 ........................................................................................................................
   1    3.780       3.780       3.780       3.780       3.780       3.780       3.780       3.780       3.780       3.780    
        3.780       3.780       3.780       3.780       3.780    
   2    2.777       2.743       2.687       2.658       2.773       2.925       3.082       3.249       3.387       3.436    
        3.471       3.494       3.505       3.509       3.509    
   3    1.941       1.861       1.700       1.521       1.863       2.206       2.515       2.825       3.064       3.155    
        3.224       3.271       3.289       3.292       3.291    
   4    1.329       1.207      0.8788     -4.4117E-03   1.100       1.674       2.101       2.512       2.822       2.949    
        3.056       3.133       3.145       3.136       3.129    
   5   0.9956      0.9192      0.7696      0.6189       1.022       1.451       1.870       2.317       2.667       2.826    
        2.981       3.122       3.084       3.043       3.023    
   6   0.9028      0.8733      0.8378      0.8653       1.095       1.416       1.791       2.231       2.594       2.772    
        2.987       3.359       3.096       3.001       2.967    
   7    1.015       1.013       1.028       1.098       1.269       1.520       1.843       2.248       2.594       2.753    
        2.909       3.051       3.013       2.973       2.953    
   8    1.323       1.333       1.364       1.437       1.571       1.767       2.031       2.379       2.686       2.813    
        2.922       3.000       3.013       3.006       2.999    
   9    1.842       1.854       1.884       1.943       2.041       2.184       2.378       2.641       2.882       2.974    
        3.046       3.095       3.116       3.121       3.121    
  10    2.582       2.591       2.613       2.652       2.712       2.797       2.908       3.053       3.186       3.233    
        3.271       3.299       3.315       3.321       3.323    
  11    3.531       3.536       3.546       3.562       3.585       3.612       3.637       3.640       3.583       3.575    
        3.580       3.590       3.597       3.602       3.604    
  12    4.195       4.196       4.199       4.202       4.205       4.204       4.191       4.152       4.018       3.964    
        3.948       3.946       3.947       3.949       3.950    
  13    4.433       4.434       4.435       4.436       4.436       4.432       4.423       4.407       4.383       4.360    
        4.349       4.345       4.345       4.345       4.346    
  14    4.686       4.686       4.686       4.685       4.684       4.682       4.679       4.678       4.692       4.691    
        4.688       4.687       4.687       4.687       4.687    
  15    4.947       4.946       4.945       4.943       4.942       4.941       4.942       4.943       4.946       4.948    
        4.949       4.950       4.951       4.951       4.951    
  16    4.724       4.717       4.704       4.687       4.670       4.662       4.673       4.694       4.716       4.735    
        4.749       4.760       4.768       4.772       4.775    
  17    4.518       4.505       4.479       4.442       4.400       4.374       4.406       4.454       4.500       4.537    
        4.565       4.586       4.600       4.609       4.613    
  18    4.346       4.327       4.286       4.222       4.135       4.049       4.143       4.239       4.315       4.371    
        4.412       4.441       4.461       4.473       4.479    
  19    4.223       4.198       4.145       4.054       3.898       3.569       3.908       4.075       4.179       4.251    
        4.302       4.337       4.361       4.376       4.383    
  20    4.158       4.131       4.075       3.987       3.869       3.759       3.879       4.009       4.112       4.189    
        4.244       4.283       4.310       4.326       4.334    

 HEAD WILL BE SAVED ON UNIT   51 AT END OF TIME STEP   26, STRESS PERIOD    2

 DRAWDOWN WILL BE SAVED ON UNIT   52 AT END OF TIME STEP   26, STRESS PERIOD    2
1
  VOLUMETRIC BUDGET FOR ENTIRE MODEL AT END OF TIME STEP   26, STRESS PERIOD   2
  ------------------------------------------------------------------------------

     CUMULATIVE VOLUMES      L**3       RATES FOR THIS TIME STEP      L**3/T
     ------------------                 ------------------------

           IN:                                      IN:
           ---                                      ---
             STORAGE =         683.3799               STORAGE =           0.0000
       CONSTANT HEAD =       20445.3906         CONSTANT HEAD =         737.0102
               WELLS =        5800.0000                 WELLS =         200.0000
       RIVER LEAKAGE =      141573.1250         RIVER LEAKAGE =        2009.6815

            TOTAL IN =      168501.8906              TOTAL IN =        2946.6917

          OUT:                                     OUT:
          ----                                     ----
             STORAGE =      152928.8438               STORAGE =        2396.6926
       CONSTANT HEAD =           0.0000         CONSTANT HEAD =           0.0000
               WELLS =       14900.0000                 WELLS =         550.0000
       RIVER LEAKAGE =         673.0626         RIVER LEAKAGE =           0.0000

           TOTAL OUT =      168501.9062             TOTAL OUT =        2946.6926

            IN - OUT =      -1.5625E-02              IN - OUT =      -9.7656E-04

 PERCENT DISCREPANCY =          -0.00     PERCENT DISCREPANCY =          -0.00






         TIME SUMMARY AT END OF TIME STEP   26 IN STRESS PERIOD    2
                    SECONDS     MINUTES      HOURS       DAYS        YEARS
                    -----------------------------------------------------------
   TIME STEP LENGTH  86400.      1440.0      24.000      1.0000     2.73785E-03
 STRESS PERIOD TIME 2.24640E+06  37440.      624.00      26.000     7.11841E-02
         TOTAL TIME 2.33280E+06  38880.      648.00      27.000     7.39220E-02
1
 
 SOLVING FOR HEAD 

 OUTPUT CONTROL FOR STRESS PERIOD    2   TIME STEP   27
    SAVE HEAD FOR ALL LAYERS
    SAVE DRAWDOWN FOR ALL LAYERS
    SAVE BUDGET
    PRINT HEAD FOR ALL LAYERS
    PRINT BUDGET
 UBDSV1 SAVING "         STORAGE" ON UNIT   1 AT TIME STEP 27, STRESS PERIOD   2
 UBDSV2 SAVING "   CONSTANT HEAD" ON UNIT   1 AT TIME STEP 27, STRESS PERIOD   2
 UBDSV1 SAVING "FLOW RIGHT FACE " ON UNIT   1 AT TIME STEP 27, STRESS PERIOD   2
 UBDSV1 SAVING "FLOW FRONT FACE " ON UNIT   1 AT TIME STEP 27, STRESS PERIOD   2
1
              HEAD IN LAYER   1 AT END OF TIME STEP  27 IN STRESS PERIOD    2
  ---------------------------------------------------------------------------

            1           2           3           4           5           6           7           8           9          10
           11          12          13          14          15
 ........................................................................................................................
   1    3.810       3.810       3.810       3.810       3.810       3.810       3.810       3.810       3.810       3.810    
        3.810       3.810       3.810       3.810       3.810    
   2    2.808       2.775       2.719       2.690       2.805       2.957       3.114       3.282       3.420       3.469    
        3.504       3.527       3.539       3.542       3.543    
   3    1.973       1.894       1.734       1.556       1.897       2.240       2.549       2.860       3.099       3.191    
        3.261       3.307       3.326       3.329       3.328    
   4    1.362       1.241      0.9140      3.2046E-02   1.136       1.709       2.137       2.549       2.861       2.989    
        3.096       3.173       3.185       3.177       3.169    
   5    1.030      0.9542      0.8057      0.6561       1.059       1.489       1.908       2.357       2.709       2.868    
        3.024       3.166       3.128       3.088       3.067    
   6   0.9391      0.9103      0.8758      0.9044       1.135       1.457       1.832       2.275       2.639       2.818    
        3.033       3.405       3.143       3.048       3.014    
   7    1.055       1.054       1.070       1.141       1.312       1.565       1.889       2.296       2.643       2.801    
        2.957       3.100       3.063       3.023       3.003    
   8    1.369       1.379       1.411       1.485       1.619       1.817       2.082       2.430       2.736       2.863    
        2.972       3.050       3.064       3.057       3.050    
   9    1.891       1.903       1.934       1.994       2.093       2.236       2.431       2.693       2.932       3.023    
        3.095       3.145       3.166       3.171       3.171    
  10    2.629       2.638       2.660       2.700       2.760       2.845       2.957       3.101       3.232       3.279    
        3.317       3.345       3.361       3.368       3.370    
  11    3.566       3.571       3.581       3.597       3.620       3.648       3.673       3.677       3.621       3.614    
        3.620       3.630       3.638       3.642       3.644    
  12    4.217       4.218       4.221       4.224       4.227       4.227       4.215       4.177       4.046       3.994    
        3.979       3.977       3.978       3.980       3.981    
  13    4.449       4.450       4.451       4.452       4.452       4.449       4.441       4.424       4.401       4.379    
        4.369       4.366       4.365       4.366       4.366    
  14    4.695       4.695       4.695       4.695       4.694       4.692       4.689       4.688       4.702       4.701    
        4.698       4.697       4.697       4.697       4.697    
  15    4.949       4.948       4.947       4.945       4.944       4.943       4.944       4.946       4.948       4.950    
        4.951       4.952       4.953       4.953       4.954    
  16    4.736       4.729       4.717       4.700       4.682       4.674       4.686       4.707       4.729       4.748    
        4.762       4.773       4.781       4.786       4.788    
  17    4.540       4.527       4.501       4.464       4.422       4.396       4.428       4.477       4.523       4.560    
        4.589       4.610       4.624       4.633       4.637    
  18    4.376       4.356       4.315       4.252       4.165       4.079       4.174       4.270       4.346       4.402    
        4.444       4.473       4.493       4.506       4.512    
  19    4.257       4.232       4.180       4.090       3.934       3.605       3.944       4.111       4.216       4.288    
        4.340       4.376       4.400       4.415       4.422    
  20    4.196       4.169       4.113       4.025       3.907       3.798       3.918       4.048       4.152       4.230    
        4.285       4.325       4.351       4.368       4.376    

 HEAD WILL BE SAVED ON UNIT   51 AT END OF TIME STEP   27, STRESS PERIOD    2

 DRAWDOWN WILL BE SAVED ON UNIT   52 AT END OF TIME STEP   27, STRESS PERIOD    2
1
  VOLUMETRIC BUDGET FOR ENTIRE MODEL AT END OF TIME STEP   27, STRESS PERIOD   2
  ------------------------------------------------------------------------------

     CUMULATIVE VOLUMES      L**3       RATES FOR THIS TIME STEP      L**3/T
     ------------------                 ------------------------

           IN:                                      IN:
           ---                                      ---
             STORAGE =         683.3799               STORAGE =           0.0000
       CONSTANT HEAD =       21178.3457         CONSTANT HEAD =         732.9557
               WELLS =        6000.0000                 WELLS =         200.0000
       RIVER LEAKAGE =      143506.5938         RIVER LEAKAGE =        1933.4635

            TOTAL IN =      171368.3125              TOTAL IN =        2866.4192

          OUT:                                     OUT:
          ----                                     ----
             STORAGE =      155245.2656               STORAGE =        2316.4207
       CONSTANT HEAD =           0.0000         CONSTANT HEAD =           0.0000
               WELLS =       15450.0000                 WELLS =         550.0000
       RIVER LEAKAGE =         673.0626         RIVER LEAKAGE =           0.0000

           TOTAL OUT =      171368.3281             TOTAL OUT =        2866.4207

            IN - OUT =      -1.5625E-02              IN - OUT =      -1.4648E-03

 PERCENT DISCREPANCY =          -0.00     PERCENT DISCREPANCY =          -0.00






         TIME SUMMARY AT END OF TIME STEP   27 IN STRESS PERIOD    2
                    SECONDS     MINUTES      HOURS       DAYS        YEARS
                    -----------------------------------------------------------
   TIME STEP LENGTH  86400.      1440.0      24.000      1.0000     2.73785E-03
 STRESS PERIOD TIME 2.33280E+06  38880.      648.00      27.000     7.39220E-02
         TOTAL TIME 2.41920E+06  40320.      672.00      28.000     7.66598E-02
1
 
 SOLVING FOR HEAD 

 OUTPUT CONTROL FOR STRESS PERIOD    2   TIME STEP   28
    SAVE HEAD FOR ALL LAYERS
    SAVE DRAWDOWN FOR ALL LAYERS
    SAVE BUDGET
    PRINT HEAD FOR ALL LAYERS
    PRINT BUDGET
 UBDSV1 SAVING "         STORAGE" ON UNIT   1 AT TIME STEP 28, STRESS PERIOD   2
 UBDSV2 SAVING "   CONSTANT HEAD" ON UNIT   1 AT TIME STEP 28, STRESS PERIOD   2
 UBDSV1 SAVING "FLOW RIGHT FACE " ON UNIT   1 AT TIME STEP 28, STRESS PERIOD   2
 UBDSV1 SAVING "FLOW FRONT FACE " ON UNIT   1 AT TIME STEP 28, STRESS PERIOD   2
1
              HEAD IN LAYER   1 AT END OF TIME STEP  28 IN STRESS PERIOD    2
  ---------------------------------------------------------------------------

            1           2           3           4           5           6           7           8           9          10
           11          12          13          14          15
 ........................................................................................................................
   1    3.840       3.840       3.840       3.840       3.840       3.840       3.840       3.840       3.840       3.840    
        3.840       3.840       3.840       3.840       3.840    
   2    2.840       2.806       2.751       2.722       2.837       2.989       3.146       3.314       3.453       3.502    
        3.537       3.561       3.572       3.576       3.577    
   3    2.006       1.927       1.768       1.590       1.931       2.274       2.583       2.894       3.135       3.227    
        3.297       3.344       3.363       3.366       3.365    
   4    1.396       1.275      0.9491      6.8475E-02   1.172       1.745       2.173       2.587       2.899       3.028    
        3.136       3.213       3.225       3.218       3.210    
   5    1.064      0.9894      0.8420      0.6933       1.096       1.527       1.947       2.397       2.751       2.911    
        3.067       3.209       3.172       3.132       3.111    
   6   0.9759      0.9478      0.9143      0.9438       1.175       1.497       1.875       2.319       2.684       2.863    
        3.079       3.451       3.189       3.095       3.062    
   7    1.096       1.095       1.112       1.184       1.356       1.610       1.935       2.343       2.690       2.849    
        3.006       3.148       3.112       3.072       3.052    
   8    1.414       1.425       1.457       1.532       1.667       1.866       2.132       2.480       2.785       2.912    
        3.021       3.100       3.114       3.107       3.100    
   9    1.939       1.951       1.983       2.043       2.143       2.286       2.482       2.743       2.980       3.071    
        3.143       3.193       3.214       3.220       3.220    
  10    2.674       2.683       2.706       2.745       2.807       2.892       3.004       3.147       3.277       3.323    
        3.362       3.390       3.406       3.413       3.416    
  11    3.599       3.604       3.614       3.630       3.654       3.682       3.708       3.713       3.658       3.651    
        3.658       3.668       3.676       3.681       3.683    
  12    4.237       4.238       4.241       4.245       4.248       4.248       4.237       4.200       4.073       4.022    
        4.008       4.006       4.008       4.011       4.012    
  13    4.464       4.465       4.466       4.467       4.468       4.465       4.457       4.441       4.419       4.398    
        4.388       4.385       4.384       4.385       4.385    
  14    4.704       4.704       4.704       4.703       4.703       4.701       4.698       4.698       4.711       4.710    
        4.707       4.706       4.706       4.707       4.707    
  15    4.950       4.950       4.949       4.947       4.946       4.945       4.946       4.947       4.950       4.952    
        4.953       4.954       4.955       4.955       4.956    
  16    4.747       4.740       4.728       4.711       4.694       4.686       4.697       4.718       4.741       4.760    
        4.775       4.786       4.793       4.798       4.801    
  17    4.559       4.547       4.521       4.484       4.442       4.417       4.449       4.498       4.544       4.582    
        4.610       4.631       4.646       4.655       4.659    
  18    4.402       4.383       4.343       4.279       4.193       4.107       4.202       4.298       4.375       4.431    
        4.473       4.503       4.523       4.536       4.542    
  19    4.289       4.265       4.212       4.122       3.967       3.638       3.978       4.145       4.250       4.323    
        4.375       4.411       4.436       4.451       4.458    
  20    4.230       4.204       4.148       4.060       3.943       3.834       3.955       4.085       4.189       4.267    
        4.323       4.363       4.390       4.407       4.415    

 HEAD WILL BE SAVED ON UNIT   51 AT END OF TIME STEP   28, STRESS PERIOD    2

 DRAWDOWN WILL BE SAVED ON UNIT   52 AT END OF TIME STEP   28, STRESS PERIOD    2
1
  VOLUMETRIC BUDGET FOR ENTIRE MODEL AT END OF TIME STEP   28, STRESS PERIOD   2
  ------------------------------------------------------------------------------

     CUMULATIVE VOLUMES      L**3       RATES FOR THIS TIME STEP      L**3/T
     ------------------                 ------------------------

           IN:                                      IN:
           ---                                      ---
             STORAGE =         683.3799               STORAGE =           0.0000
       CONSTANT HEAD =       21907.2246         CONSTANT HEAD =         728.8793
               WELLS =        6200.0000                 WELLS =         200.0000
       RIVER LEAKAGE =      145369.0312         RIVER LEAKAGE =        1862.4423

            TOTAL IN =      174159.6406              TOTAL IN =        2791.3215

          OUT:                                     OUT:
          ----                                     ----
             STORAGE =      157486.5938               STORAGE =        2241.3213
       CONSTANT HEAD =           0.0000         CONSTANT HEAD =           0.0000
               WELLS =       16000.0000                 WELLS =         550.0000
       RIVER LEAKAGE =         673.0626         RIVER LEAKAGE =           0.0000

           TOTAL OUT =      174159.6562             TOTAL OUT =        2791.3213

            IN - OUT =      -1.5625E-02              IN - OUT =       2.4414E-04

 PERCENT DISCREPANCY =          -0.00     PERCENT DISCREPANCY =           0.00






         TIME SUMMARY AT END OF TIME STEP   28 IN STRESS PERIOD    2
                    SECONDS     MINUTES      HOURS       DAYS        YEARS
                    -----------------------------------------------------------
   TIME STEP LENGTH  86400.      1440.0      24.000      1.0000     2.73785E-03
 STRESS PERIOD TIME 2.41920E+06  40320.      672.00      28.000     7.66598E-02
         TOTAL TIME 2.50560E+06  41760.      696.00      29.000     7.93977E-02
1
 
 SOLVING FOR HEAD 

 OUTPUT CONTROL FOR STRESS PERIOD    2   TIME STEP   29
    SAVE HEAD FOR ALL LAYERS
    SAVE DRAWDOWN FOR ALL LAYERS
    SAVE BUDGET
    PRINT HEAD FOR ALL LAYERS
    PRINT BUDGET
 UBDSV1 SAVING "         STORAGE" ON UNIT   1 AT TIME STEP 29, STRESS PERIOD   2
 UBDSV2 SAVING "   CONSTANT HEAD" ON UNIT   1 AT TIME STEP 29, STRESS PERIOD   2
 UBDSV1 SAVING "FLOW RIGHT FACE " ON UNIT   1 AT TIME STEP 29, STRESS PERIOD   2
 UBDSV1 SAVING "FLOW FRONT FACE " ON UNIT   1 AT TIME STEP 29, STRESS PERIOD   2
1
              HEAD IN LAYER   1 AT END OF TIME STEP  29 IN STRESS PERIOD    2
  ---------------------------------------------------------------------------

            1           2           3           4           5           6           7           8           9          10
           11          12          13          14          15
 ........................................................................................................................
   1    3.870       3.870       3.870       3.870       3.870       3.870       3.870       3.870       3.870       3.870    
        3.870       3.870       3.870       3.870       3.870    
   2    2.871       2.838       2.783       2.755       2.869       3.022       3.178       3.346       3.486       3.535    
        3.570       3.594       3.606       3.609       3.610    
   3    2.038       1.960       1.801       1.624       1.965       2.308       2.617       2.929       3.171       3.263    
        3.333       3.381       3.400       3.403       3.402    
   4    1.429       1.310      0.9843      0.1049       1.208       1.781       2.210       2.624       2.938       3.067    
        3.175       3.253       3.266       3.258       3.251    
   5    1.099       1.025      0.8785      0.7307       1.134       1.565       1.986       2.438       2.792       2.953    
        3.109       3.252       3.215       3.175       3.155    
   6    1.013      0.9856      0.9530      0.9834       1.215       1.539       1.917       2.363       2.728       2.908    
        3.124       3.497       3.236       3.142       3.108    
   7    1.137       1.136       1.154       1.227       1.400       1.655       1.981       2.390       2.737       2.896    
        3.053       3.196       3.160       3.121       3.101    
   8    1.459       1.470       1.503       1.578       1.714       1.914       2.181       2.529       2.833       2.960    
        3.069       3.148       3.162       3.156       3.149    
   9    1.986       1.998       2.030       2.091       2.191       2.336       2.531       2.792       3.027       3.118    
        3.190       3.240       3.261       3.267       3.267    
  10    2.717       2.727       2.749       2.789       2.851       2.937       3.049       3.192       3.319       3.366    
        3.404       3.433       3.450       3.457       3.459    
  11    3.630       3.635       3.645       3.662       3.686       3.714       3.741       3.746       3.693       3.687    
        3.695       3.705       3.714       3.719       3.721    
  12    4.256       4.258       4.261       4.265       4.268       4.268       4.258       4.222       4.099       4.049    
        4.036       4.035       4.037       4.039       4.040    
  13    4.478       4.479       4.480       4.482       4.482       4.480       4.472       4.457       4.436       4.415    
        4.406       4.403       4.403       4.403       4.404    
  14    4.712       4.712       4.712       4.712       4.711       4.709       4.707       4.706       4.719       4.718    
        4.716       4.715       4.715       4.716       4.716    
  15    4.952       4.952       4.950       4.949       4.947       4.947       4.947       4.949       4.952       4.954    
        4.955       4.956       4.957       4.957       4.957    
  16    4.757       4.751       4.738       4.721       4.704       4.697       4.708       4.729       4.752       4.771    
        4.786       4.797       4.805       4.810       4.812    
  17    4.578       4.565       4.539       4.503       4.461       4.436       4.468       4.517       4.563       4.601    
        4.630       4.651       4.666       4.675       4.680    
  18    4.427       4.408       4.368       4.305       4.218       4.133       4.228       4.325       4.401       4.458    
        4.500       4.530       4.551       4.564       4.570    
  19    4.319       4.294       4.242       4.152       3.997       3.669       4.009       4.177       4.282       4.355    
        4.407       4.444       4.468       4.484       4.491    
  20    4.263       4.236       4.180       4.093       3.976       3.868       3.988       4.119       4.224       4.302    
        4.358       4.398       4.425       4.442       4.450    

 HEAD WILL BE SAVED ON UNIT   51 AT END OF TIME STEP   29, STRESS PERIOD    2

 DRAWDOWN WILL BE SAVED ON UNIT   52 AT END OF TIME STEP   29, STRESS PERIOD    2
1
  VOLUMETRIC BUDGET FOR ENTIRE MODEL AT END OF TIME STEP   29, STRESS PERIOD   2
  ------------------------------------------------------------------------------

     CUMULATIVE VOLUMES      L**3       RATES FOR THIS TIME STEP      L**3/T
     ------------------                 ------------------------

           IN:                                      IN:
           ---                                      ---
             STORAGE =         683.3799               STORAGE =           0.0000
       CONSTANT HEAD =       22632.0215         CONSTANT HEAD =         724.7975
               WELLS =        6400.0000                 WELLS =         200.0000
       RIVER LEAKAGE =      147165.2188         RIVER LEAKAGE =        1796.1799

            TOTAL IN =      176880.6250              TOTAL IN =        2720.9775

          OUT:                                     OUT:
          ----                                     ----
             STORAGE =      159657.5781               STORAGE =        2170.9780
       CONSTANT HEAD =           0.0000         CONSTANT HEAD =           0.0000
               WELLS =       16550.0000                 WELLS =         550.0000
       RIVER LEAKAGE =         673.0626         RIVER LEAKAGE =           0.0000

           TOTAL OUT =      176880.6406             TOTAL OUT =        2720.9780

            IN - OUT =      -1.5625E-02              IN - OUT =      -4.8828E-04

 PERCENT DISCREPANCY =          -0.00     PERCENT DISCREPANCY =          -0.00






         TIME SUMMARY AT END OF TIME STEP   29 IN STRESS PERIOD    2
                    SECONDS     MINUTES      HOURS       DAYS        YEARS
                    -----------------------------------------------------------
   TIME STEP LENGTH  86400.      1440.0      24.000      1.0000     2.73785E-03
 STRESS PERIOD TIME 2.50560E+06  41760.      696.00      29.000     7.93977E-02
         TOTAL TIME 2.59200E+06  43200.      720.00      30.000     8.21355E-02
1
 
 SOLVING FOR HEAD 

 OUTPUT CONTROL FOR STRESS PERIOD    2   TIME STEP   30
    SAVE HEAD FOR ALL LAYERS
    SAVE DRAWDOWN FOR ALL LAYERS
    SAVE BUDGET
    PRINT HEAD FOR ALL LAYERS
    PRINT BUDGET
 UBDSV1 SAVING "         STORAGE" ON UNIT   1 AT TIME STEP 30, STRESS PERIOD   2
 UBDSV2 SAVING "   CONSTANT HEAD" ON UNIT   1 AT TIME STEP 30, STRESS PERIOD   2
 UBDSV1 SAVING "FLOW RIGHT FACE " ON UNIT   1 AT TIME STEP 30, STRESS PERIOD   2
 UBDSV1 SAVING "FLOW FRONT FACE " ON UNIT   1 AT TIME STEP 30, STRESS PERIOD   2
1
              HEAD IN LAYER   1 AT END OF TIME STEP  30 IN STRESS PERIOD    2
  ---------------------------------------------------------------------------

            1           2           3           4           5           6           7           8           9          10
           11          12          13          14          15
 ........................................................................................................................
   1    3.900       3.900       3.900       3.900       3.900       3.900       3.900       3.900       3.900       3.900    
        3.900       3.900       3.900       3.900       3.900    
   2    2.903       2.870       2.815       2.787       2.901       3.054       3.210       3.379       3.519       3.568    
        3.604       3.627       3.639       3.643       3.644    
   3    2.071       1.993       1.835       1.658       1.999       2.342       2.652       2.964       3.206       3.299    
        3.370       3.417       3.436       3.440       3.439    
   4    1.463       1.344       1.020      0.1414       1.244       1.817       2.247       2.662       2.977       3.106    
        3.215       3.293       3.306       3.298       3.291    
   5    1.135       1.061      0.9152      0.7683       1.172       1.603       2.026       2.479       2.834       2.995    
        3.152       3.295       3.258       3.219       3.199    
   6    1.051       1.024      0.9919       1.023       1.256       1.580       1.960       2.406       2.773       2.952    
        3.169       3.541       3.281       3.188       3.154    
   7    1.178       1.178       1.196       1.270       1.444       1.700       2.027       2.437       2.783       2.942    
        3.099       3.243       3.207       3.168       3.148    
   8    1.504       1.515       1.549       1.625       1.761       1.962       2.229       2.577       2.879       3.007    
        3.116       3.195       3.209       3.203       3.197    
   9    2.031       2.045       2.077       2.138       2.239       2.384       2.580       2.839       3.072       3.163    
        3.235       3.285       3.307       3.313       3.313    
  10    2.758       2.768       2.791       2.832       2.894       2.980       3.092       3.234       3.360       3.407    
        3.446       3.475       3.491       3.499       3.501    
  11    3.660       3.664       3.675       3.692       3.716       3.745       3.773       3.779       3.727       3.722    
        3.730       3.741       3.749       3.754       3.757    
  12    4.274       4.276       4.279       4.283       4.287       4.287       4.277       4.243       4.123       4.075    
        4.063       4.062       4.065       4.067       4.068    
  13    4.492       4.492       4.494       4.495       4.496       4.494       4.487       4.472       4.451       4.432    
        4.423       4.420       4.420       4.421       4.422    
  14    4.720       4.720       4.720       4.720       4.719       4.717       4.715       4.715       4.727       4.727    
        4.725       4.724       4.724       4.725       4.725    
  15    4.954       4.953       4.952       4.950       4.949       4.948       4.949       4.951       4.954       4.956    
        4.957       4.958       4.958       4.959       4.959    
  16    4.767       4.760       4.748       4.731       4.714       4.706       4.718       4.739       4.762       4.781    
        4.796       4.808       4.815       4.820       4.823    
  17    4.595       4.582       4.556       4.520       4.479       4.453       4.486       4.535       4.581       4.619    
        4.649       4.670       4.685       4.694       4.698    
  18    4.450       4.431       4.391       4.328       4.242       4.156       4.252       4.349       4.426       4.483    
        4.525       4.555       4.576       4.589       4.595    
  19    4.347       4.322       4.270       4.180       4.026       3.698       4.038       4.206       4.311       4.384    
        4.437       4.474       4.499       4.514       4.522    
  20    4.292       4.266       4.210       4.123       4.006       3.899       4.019       4.151       4.255       4.334    
        4.391       4.431       4.458       4.475       4.483    

 HEAD WILL BE SAVED ON UNIT   51 AT END OF TIME STEP   30, STRESS PERIOD    2

 DRAWDOWN WILL BE SAVED ON UNIT   52 AT END OF TIME STEP   30, STRESS PERIOD    2
1
  VOLUMETRIC BUDGET FOR ENTIRE MODEL AT END OF TIME STEP   30, STRESS PERIOD   2
  ------------------------------------------------------------------------------

     CUMULATIVE VOLUMES      L**3       RATES FOR THIS TIME STEP      L**3/T
     ------------------                 ------------------------

           IN:                                      IN:
           ---                                      ---
             STORAGE =         683.3799               STORAGE =           0.0000
       CONSTANT HEAD =       23352.7480         CONSTANT HEAD =         720.7275
               WELLS =        6600.0000                 WELLS =         200.0000
       RIVER LEAKAGE =      148899.5000         RIVER LEAKAGE =        1734.2891

            TOTAL IN =      179535.6250              TOTAL IN =        2655.0166

          OUT:                                     OUT:
          ----                                     ----
             STORAGE =      161762.5938               STORAGE =        2105.0164
       CONSTANT HEAD =           0.0000         CONSTANT HEAD =           0.0000
               WELLS =       17100.0000                 WELLS =         550.0000
       RIVER LEAKAGE =         673.0626         RIVER LEAKAGE =           0.0000

           TOTAL OUT =      179535.6562             TOTAL OUT =        2655.0164

            IN - OUT =      -3.1250E-02              IN - OUT =       2.4414E-04

 PERCENT DISCREPANCY =          -0.00     PERCENT DISCREPANCY =           0.00






         TIME SUMMARY AT END OF TIME STEP   30 IN STRESS PERIOD    2
                    SECONDS     MINUTES      HOURS       DAYS        YEARS
                    -----------------------------------------------------------
   TIME STEP LENGTH  86400.      1440.0      24.000      1.0000     2.73785E-03
 STRESS PERIOD TIME 2.59200E+06  43200.      720.00      30.000     8.21355E-02
         TOTAL TIME 2.67840E+06  44640.      744.00      31.000     8.48734E-02
1
 
 SOLVING FOR HEAD 

 OUTPUT CONTROL FOR STRESS PERIOD    2   TIME STEP   31
    SAVE HEAD FOR ALL LAYERS
    SAVE DRAWDOWN FOR ALL LAYERS
    SAVE BUDGET
    PRINT HEAD FOR ALL LAYERS
    PRINT BUDGET
 UBDSV1 SAVING "         STORAGE" ON UNIT   1 AT TIME STEP 31, STRESS PERIOD   2
 UBDSV2 SAVING "   CONSTANT HEAD" ON UNIT   1 AT TIME STEP 31, STRESS PERIOD   2
 UBDSV1 SAVING "FLOW RIGHT FACE " ON UNIT   1 AT TIME STEP 31, STRESS PERIOD   2
 UBDSV1 SAVING "FLOW FRONT FACE " ON UNIT   1 AT TIME STEP 31, STRESS PERIOD   2
1
              HEAD IN LAYER   1 AT END OF TIME STEP  31 IN STRESS PERIOD    2
  ---------------------------------------------------------------------------

            1           2           3           4           5           6           7           8           9          10
           11          12          13          14          15
 ........................................................................................................................
   1    3.930       3.930       3.930       3.930       3.930       3.930       3.930       3.930       3.930       3.930    
        3.930       3.930       3.930       3.930       3.930    
   2    2.934       2.901       2.847       2.819       2.933       3.086       3.242       3.411       3.551       3.601    
        3.637       3.661       3.672       3.676       3.677    
   3    2.103       2.026       1.869       1.692       2.033       2.376       2.686       3.000       3.242       3.335    
        3.406       3.454       3.473       3.477       3.476    
   4    1.497       1.378       1.055      0.1779       1.280       1.854       2.284       2.700       3.015       3.145    
        3.254       3.332       3.346       3.338       3.331    
   5    1.170       1.097      0.9521      0.8061       1.210       1.642       2.065       2.520       2.875       3.036    
        3.194       3.337       3.301       3.262       3.242    
   6    1.089       1.062       1.031       1.063       1.297       1.622       2.002       2.450       2.816       2.996    
        3.213       3.586       3.326       3.233       3.199    
   7    1.219       1.219       1.238       1.313       1.488       1.744       2.073       2.483       2.829       2.988    
        3.145       3.288       3.253       3.214       3.195    
   8    1.548       1.560       1.594       1.671       1.808       2.009       2.277       2.625       2.925       3.053    
        3.161       3.241       3.256       3.249       3.243    
   9    2.076       2.090       2.122       2.184       2.286       2.431       2.627       2.886       3.116       3.207    
        3.279       3.329       3.351       3.357       3.358    
  10    2.798       2.809       2.832       2.873       2.935       3.022       3.134       3.276       3.400       3.447    
        3.486       3.515       3.532       3.539       3.542    
  11    3.688       3.693       3.703       3.721       3.745       3.775       3.803       3.810       3.760       3.755    
        3.763       3.775       3.784       3.789       3.791    
  12    4.291       4.293       4.296       4.300       4.305       4.305       4.296       4.263       4.146       4.100    
        4.088       4.088       4.091       4.093       4.095    
  13    4.504       4.505       4.506       4.508       4.509       4.507       4.500       4.486       4.467       4.447    
        4.439       4.437       4.437       4.438       4.438    
  14    4.727       4.727       4.727       4.727       4.726       4.725       4.723       4.723       4.735       4.735    
        4.733       4.732       4.732       4.733       4.733    
  15    4.955       4.955       4.953       4.952       4.950       4.950       4.951       4.952       4.955       4.957    
        4.958       4.959       4.960       4.961       4.961    
  16    4.776       4.769       4.757       4.740       4.723       4.716       4.727       4.749       4.771       4.791    
        4.806       4.817       4.825       4.830       4.833    
  17    4.610       4.598       4.572       4.536       4.495       4.469       4.502       4.552       4.598       4.636    
        4.666       4.687       4.702       4.711       4.716    
  18    4.472       4.453       4.413       4.350       4.264       4.179       4.274       4.372       4.448       4.506    
        4.548       4.579       4.600       4.613       4.619    
  19    4.372       4.347       4.295       4.206       4.052       3.725       4.064       4.232       4.338       4.412    
        4.464       4.501       4.526       4.542       4.550    
  20    4.320       4.293       4.238       4.151       4.035       3.927       4.048       4.180       4.285       4.363    
        4.420       4.461       4.488       4.505       4.514    

 HEAD WILL BE SAVED ON UNIT   51 AT END OF TIME STEP   31, STRESS PERIOD    2

 DRAWDOWN WILL BE SAVED ON UNIT   52 AT END OF TIME STEP   31, STRESS PERIOD    2
1
  VOLUMETRIC BUDGET FOR ENTIRE MODEL AT END OF TIME STEP   31, STRESS PERIOD   2
  ------------------------------------------------------------------------------

     CUMULATIVE VOLUMES      L**3       RATES FOR THIS TIME STEP      L**3/T
     ------------------                 ------------------------

           IN:                                      IN:
           ---                                      ---
             STORAGE =         683.3799               STORAGE =           0.0000
       CONSTANT HEAD =       24069.4297         CONSTANT HEAD =         716.6821
               WELLS =        6800.0000                 WELLS =         200.0000
       RIVER LEAKAGE =      150575.9062         RIVER LEAKAGE =        1676.4120

            TOTAL IN =      182128.7188              TOTAL IN =        2593.0942

          OUT:                                     OUT:
          ----                                     ----
             STORAGE =      163805.6875               STORAGE =        2043.0940
       CONSTANT HEAD =           0.0000         CONSTANT HEAD =           0.0000
               WELLS =       17650.0000                 WELLS =         550.0000
       RIVER LEAKAGE =         673.0626         RIVER LEAKAGE =           0.0000

           TOTAL OUT =      182128.7500             TOTAL OUT =        2593.0940

            IN - OUT =      -3.1250E-02              IN - OUT =       2.4414E-04

 PERCENT DISCREPANCY =          -0.00     PERCENT DISCREPANCY =           0.00






         TIME SUMMARY AT END OF TIME STEP   31 IN STRESS PERIOD    2
                    SECONDS     MINUTES      HOURS       DAYS        YEARS
                    -----------------------------------------------------------
   TIME STEP LENGTH  86400.      1440.0      24.000      1.0000     2.73785E-03
 STRESS PERIOD TIME 2.67840E+06  44640.      744.00      31.000     8.48734E-02
         TOTAL TIME 2.76480E+06  46080.      768.00      32.000     8.76112E-02
1
 
 SOLVING FOR HEAD 

 OUTPUT CONTROL FOR STRESS PERIOD    2   TIME STEP   32
    SAVE HEAD FOR ALL LAYERS
    SAVE DRAWDOWN FOR ALL LAYERS
    SAVE BUDGET
    PRINT HEAD FOR ALL LAYERS
    PRINT BUDGET
 UBDSV1 SAVING "         STORAGE" ON UNIT   1 AT TIME STEP 32, STRESS PERIOD   2
 UBDSV2 SAVING "   CONSTANT HEAD" ON UNIT   1 AT TIME STEP 32, STRESS PERIOD   2
 UBDSV1 SAVING "FLOW RIGHT FACE " ON UNIT   1 AT TIME STEP 32, STRESS PERIOD   2
 UBDSV1 SAVING "FLOW FRONT FACE " ON UNIT   1 AT TIME STEP 32, STRESS PERIOD   2
1
              HEAD IN LAYER   1 AT END OF TIME STEP  32 IN STRESS PERIOD    2
  ---------------------------------------------------------------------------

            1           2           3           4           5           6           7           8           9          10
           11          12          13          14          15
 ........................................................................................................................
   1    3.960       3.960       3.960       3.960       3.960       3.960       3.960       3.960       3.960       3.960    
        3.960       3.960       3.960       3.960       3.960    
   2    2.966       2.933       2.879       2.851       2.965       3.118       3.275       3.444       3.584       3.634    
        3.670       3.694       3.706       3.710       3.711    
   3    2.136       2.059       1.902       1.727       2.068       2.411       2.721       3.035       3.278       3.371    
        3.442       3.490       3.509       3.513       3.513    
   4    1.531       1.413       1.090      0.2144       1.316       1.890       2.321       2.738       3.054       3.184    
        3.293       3.371       3.385       3.378       3.371    
   5    1.206       1.133      0.9891      0.8440       1.249       1.681       2.105       2.560       2.917       3.078    
        3.235       3.379       3.343       3.304       3.284    
   6    1.127       1.101       1.070       1.103       1.337       1.663       2.045       2.493       2.860       3.040    
        3.257       3.629       3.370       3.277       3.244    
   7    1.260       1.261       1.281       1.356       1.532       1.789       2.118       2.529       2.874       3.033    
        3.190       3.333       3.298       3.260       3.240    
   8    1.592       1.604       1.639       1.716       1.854       2.056       2.324       2.671       2.970       3.097    
        3.206       3.286       3.301       3.295       3.288    
   9    2.120       2.134       2.167       2.229       2.331       2.477       2.673       2.931       3.159       3.249    
        3.321       3.372       3.394       3.400       3.401    
  10    2.837       2.847       2.871       2.912       2.975       3.062       3.175       3.316       3.439       3.485    
        3.524       3.554       3.571       3.579       3.581    
  11    3.714       3.720       3.730       3.748       3.773       3.803       3.831       3.839       3.791       3.787    
        3.796       3.808       3.817       3.822       3.824    
  12    4.307       4.309       4.312       4.317       4.321       4.323       4.314       4.283       4.169       4.124    
        4.113       4.113       4.116       4.119       4.120    
  13    4.516       4.517       4.518       4.520       4.521       4.520       4.513       4.500       4.481       4.463    
        4.454       4.453       4.453       4.454       4.455    
  14    4.734       4.734       4.734       4.734       4.733       4.732       4.730       4.730       4.742       4.742    
        4.741       4.740       4.740       4.741       4.741    
  15    4.956       4.956       4.955       4.953       4.952       4.951       4.952       4.954       4.957       4.959    
        4.960       4.961       4.962       4.962       4.962    
  16    4.784       4.778       4.765       4.748       4.732       4.724       4.736       4.757       4.780       4.799    
        4.815       4.826       4.834       4.839       4.842    
  17    4.625       4.612       4.587       4.550       4.510       4.484       4.517       4.567       4.614       4.652    
        4.681       4.703       4.718       4.727       4.732    
  18    4.492       4.472       4.433       4.370       4.284       4.199       4.295       4.392       4.469       4.527    
        4.570       4.600       4.621       4.634       4.641    
  19    4.396       4.371       4.319       4.230       4.076       3.749       4.089       4.257       4.363       4.437    
        4.489       4.527       4.552       4.568       4.575    
  20    4.346       4.319       4.264       4.177       4.061       3.954       4.075       4.206       4.312       4.390    
        4.448       4.488       4.516       4.533       4.542    

 HEAD WILL BE SAVED ON UNIT   51 AT END OF TIME STEP   32, STRESS PERIOD    2

 DRAWDOWN WILL BE SAVED ON UNIT   52 AT END OF TIME STEP   32, STRESS PERIOD    2
1
  VOLUMETRIC BUDGET FOR ENTIRE MODEL AT END OF TIME STEP   32, STRESS PERIOD   2
  ------------------------------------------------------------------------------

     CUMULATIVE VOLUMES      L**3       RATES FOR THIS TIME STEP      L**3/T
     ------------------                 ------------------------

           IN:                                      IN:
           ---                                      ---
             STORAGE =         683.3799               STORAGE =           0.0000
       CONSTANT HEAD =       24782.1035         CONSTANT HEAD =         712.6746
               WELLS =        7000.0000                 WELLS =         200.0000
       RIVER LEAKAGE =      152198.1406         RIVER LEAKAGE =        1622.2283

            TOTAL IN =      184663.6250              TOTAL IN =        2534.9028

          OUT:                                     OUT:
          ----                                     ----
             STORAGE =      165790.5938               STORAGE =        1984.9019
       CONSTANT HEAD =           0.0000         CONSTANT HEAD =           0.0000
               WELLS =       18200.0000                 WELLS =         550.0000
       RIVER LEAKAGE =         673.0626         RIVER LEAKAGE =           0.0000

           TOTAL OUT =      184663.6562             TOTAL OUT =        2534.9019

            IN - OUT =      -3.1250E-02              IN - OUT =       9.7656E-04

 PERCENT DISCREPANCY =          -0.00     PERCENT DISCREPANCY =           0.00






         TIME SUMMARY AT END OF TIME STEP   32 IN STRESS PERIOD    2
                    SECONDS     MINUTES      HOURS       DAYS        YEARS
                    -----------------------------------------------------------
   TIME STEP LENGTH  86400.      1440.0      24.000      1.0000     2.73785E-03
 STRESS PERIOD TIME 2.76480E+06  46080.      768.00      32.000     8.76112E-02
         TOTAL TIME 2.85120E+06  47520.      792.00      33.000     9.03491E-02
1
 
 SOLVING FOR HEAD 

 OUTPUT CONTROL FOR STRESS PERIOD    2   TIME STEP   33
    SAVE HEAD FOR ALL LAYERS
    SAVE DRAWDOWN FOR ALL LAYERS
    SAVE BUDGET
    PRINT HEAD FOR ALL LAYERS
    PRINT BUDGET
 UBDSV1 SAVING "         STORAGE" ON UNIT   1 AT TIME STEP 33, STRESS PERIOD   2
 UBDSV2 SAVING "   CONSTANT HEAD" ON UNIT   1 AT TIME STEP 33, STRESS PERIOD   2
 UBDSV1 SAVING "FLOW RIGHT FACE " ON UNIT   1 AT TIME STEP 33, STRESS PERIOD   2
 UBDSV1 SAVING "FLOW FRONT FACE " ON UNIT   1 AT TIME STEP 33, STRESS PERIOD   2
1
              HEAD IN LAYER   1 AT END OF TIME STEP  33 IN STRESS PERIOD    2
  ---------------------------------------------------------------------------

            1           2           3           4           5           6           7           8           9          10
           11          12          13          14          15
 ........................................................................................................................
   1    3.990       3.990       3.990       3.990       3.990       3.990       3.990       3.990       3.990       3.990    
        3.990       3.990       3.990       3.990       3.990    
   2    2.997       2.964       2.911       2.883       2.998       3.150       3.307       3.477       3.617       3.667    
        3.703       3.727       3.739       3.743       3.744    
   3    2.169       2.092       1.936       1.761       2.102       2.445       2.755       3.070       3.313       3.406    
        3.478       3.526       3.546       3.550       3.549    
   4    1.566       1.448       1.126      0.2511       1.353       1.927       2.358       2.776       3.092       3.222    
        3.332       3.410       3.424       3.417       3.410    
   5    1.242       1.170       1.026      0.8820       1.287       1.720       2.145       2.601       2.957       3.119    
        3.277       3.420       3.385       3.346       3.326    
   6    1.165       1.139       1.110       1.144       1.378       1.705       2.087       2.536       2.903       3.083    
        3.300       3.672       3.413       3.321       3.288    
   7    1.301       1.302       1.323       1.399       1.575       1.833       2.163       2.574       2.918       3.077    
        3.234       3.378       3.343       3.304       3.285    
   8    1.635       1.647       1.683       1.761       1.900       2.102       2.371       2.717       3.014       3.141    
        3.250       3.329       3.345       3.339       3.333    
   9    2.163       2.177       2.210       2.273       2.376       2.522       2.718       2.975       3.201       3.291    
        3.363       3.414       3.436       3.442       3.443    
  10    2.874       2.885       2.909       2.950       3.014       3.101       3.214       3.354       3.476       3.522    
        3.562       3.591       3.609       3.617       3.619    
  11    3.740       3.745       3.756       3.774       3.799       3.830       3.859       3.868       3.821       3.818    
        3.827       3.839       3.849       3.854       3.857    
  12    4.323       4.324       4.328       4.333       4.337       4.339       4.331       4.301       4.190       4.147    
        4.137       4.137       4.140       4.143       4.145    
  13    4.527       4.528       4.529       4.531       4.533       4.531       4.526       4.513       4.495       4.477    
        4.469       4.468       4.468       4.469       4.470    
  14    4.740       4.740       4.740       4.740       4.740       4.739       4.737       4.737       4.749       4.749    
        4.748       4.747       4.748       4.748       4.749    
  15    4.958       4.957       4.956       4.955       4.953       4.952       4.953       4.955       4.958       4.960    
        4.961       4.962       4.963       4.963       4.964    
  16    4.792       4.785       4.773       4.756       4.740       4.732       4.744       4.765       4.788       4.808    
        4.823       4.834       4.843       4.848       4.850    
  17    4.638       4.626       4.600       4.564       4.523       4.498       4.531       4.581       4.628       4.666    
        4.696       4.717       4.732       4.742       4.746    
  18    4.510       4.491       4.451       4.388       4.303       4.218       4.314       4.412       4.489       4.547    
        4.589       4.620       4.641       4.654       4.661    
  19    4.417       4.393       4.341       4.252       4.098       3.772       4.111       4.280       4.386       4.460    
        4.513       4.550       4.576       4.592       4.599    
  20    4.369       4.343       4.288       4.201       4.085       3.978       4.099       4.231       4.337       4.416    
        4.473       4.514       4.542       4.559       4.567    

 HEAD WILL BE SAVED ON UNIT   51 AT END OF TIME STEP   33, STRESS PERIOD    2

 DRAWDOWN WILL BE SAVED ON UNIT   52 AT END OF TIME STEP   33, STRESS PERIOD    2
1
  VOLUMETRIC BUDGET FOR ENTIRE MODEL AT END OF TIME STEP   33, STRESS PERIOD   2
  ------------------------------------------------------------------------------

     CUMULATIVE VOLUMES      L**3       RATES FOR THIS TIME STEP      L**3/T
     ------------------                 ------------------------

           IN:                                      IN:
           ---                                      ---
             STORAGE =         683.3799               STORAGE =           0.0000
       CONSTANT HEAD =       25490.8203         CONSTANT HEAD =         708.7163
               WELLS =        7200.0000                 WELLS =         200.0000
       RIVER LEAKAGE =      153769.5781         RIVER LEAKAGE =        1571.4429

            TOTAL IN =      187143.7812              TOTAL IN =        2480.1592

          OUT:                                     OUT:
          ----                                     ----
             STORAGE =      167720.7500               STORAGE =        1930.1593
       CONSTANT HEAD =           0.0000         CONSTANT HEAD =           0.0000
               WELLS =       18750.0000                 WELLS =         550.0000
       RIVER LEAKAGE =         673.0626         RIVER LEAKAGE =           0.0000

           TOTAL OUT =      187143.8125             TOTAL OUT =        2480.1592

            IN - OUT =      -3.1250E-02              IN - OUT =           0.0000

 PERCENT DISCREPANCY =          -0.00     PERCENT DISCREPANCY =           0.00






         TIME SUMMARY AT END OF TIME STEP   33 IN STRESS PERIOD    2
                    SECONDS     MINUTES      HOURS       DAYS        YEARS
                    -----------------------------------------------------------
   TIME STEP LENGTH  86400.      1440.0      24.000      1.0000     2.73785E-03
 STRESS PERIOD TIME 2.85120E+06  47520.      792.00      33.000     9.03491E-02
         TOTAL TIME 2.93760E+06  48960.      816.00      34.000     9.30869E-02
1
 
 SOLVING FOR HEAD 

 OUTPUT CONTROL FOR STRESS PERIOD    2   TIME STEP   34
    SAVE HEAD FOR ALL LAYERS
    SAVE DRAWDOWN FOR ALL LAYERS
    SAVE BUDGET
    PRINT HEAD FOR ALL LAYERS
    PRINT BUDGET
 UBDSV1 SAVING "         STORAGE" ON UNIT   1 AT TIME STEP 34, STRESS PERIOD   2
 UBDSV2 SAVING "   CONSTANT HEAD" ON UNIT   1 AT TIME STEP 34, STRESS PERIOD   2
 UBDSV1 SAVING "FLOW RIGHT FACE " ON UNIT   1 AT TIME STEP 34, STRESS PERIOD   2
 UBDSV1 SAVING "FLOW FRONT FACE " ON UNIT   1 AT TIME STEP 34, STRESS PERIOD   2
1
              HEAD IN LAYER   1 AT END OF TIME STEP  34 IN STRESS PERIOD    2
  ---------------------------------------------------------------------------

            1           2           3           4           5           6           7           8           9          10
           11          12          13          14          15
 ........................................................................................................................
   1    4.020       4.020       4.020       4.020       4.020       4.020       4.020       4.020       4.020       4.020    
        4.020       4.020       4.020       4.020       4.020    
   2    3.028       2.996       2.943       2.915       3.030       3.182       3.339       3.509       3.650       3.700    
        3.736       3.760       3.772       3.776       3.777    
   3    2.202       2.126       1.970       1.795       2.136       2.479       2.790       3.105       3.349       3.442    
        3.514       3.562       3.582       3.586       3.586    
   4    1.600       1.482       1.161      0.2878       1.389       1.963       2.395       2.814       3.130       3.261    
        3.370       3.449       3.463       3.456       3.450    
   5    1.278       1.206       1.064      0.9201       1.326       1.759       2.185       2.641       2.998       3.160    
        3.318       3.461       3.426       3.387       3.368    
   6    1.204       1.178       1.149       1.184       1.419       1.747       2.130       2.579       2.945       3.125    
        3.343       3.715       3.456       3.364       3.331    
   7    1.342       1.344       1.365       1.442       1.619       1.878       2.208       2.618       2.961       3.120    
        3.277       3.421       3.386       3.348       3.329    
   8    1.678       1.691       1.726       1.805       1.944       2.147       2.416       2.762       3.058       3.184    
        3.293       3.372       3.388       3.382       3.376    
   9    2.205       2.219       2.253       2.316       2.419       2.566       2.762       3.018       3.242       3.331    
        3.403       3.454       3.477       3.483       3.484    
  10    2.910       2.921       2.945       2.987       3.051       3.139       3.252       3.391       3.512       3.559    
        3.598       3.628       3.645       3.653       3.656    
  11    3.765       3.770       3.781       3.799       3.825       3.856       3.885       3.895       3.850       3.848    
        3.857       3.870       3.879       3.885       3.888    
  12    4.337       4.339       4.343       4.348       4.353       4.355       4.348       4.318       4.211       4.169    
        4.159       4.160       4.164       4.167       4.168    
  13    4.538       4.538       4.540       4.542       4.544       4.543       4.537       4.525       4.508       4.491    
        4.484       4.482       4.483       4.484       4.485    
  14    4.746       4.746       4.746       4.746       4.746       4.745       4.744       4.744       4.756       4.756    
        4.755       4.755       4.755       4.756       4.756    
  15    4.959       4.958       4.957       4.956       4.954       4.954       4.955       4.957       4.959       4.961    
        4.963       4.964       4.964       4.965       4.965    
  16    4.799       4.792       4.780       4.763       4.747       4.739       4.751       4.773       4.795       4.815    
        4.831       4.842       4.850       4.855       4.858    
  17    4.651       4.638       4.613       4.577       4.536       4.511       4.544       4.594       4.641       4.679    
        4.709       4.731       4.746       4.755       4.760    
  18    4.527       4.508       4.468       4.406       4.320       4.236       4.332       4.429       4.507       4.565    
        4.608       4.638       4.659       4.673       4.679    
  19    4.438       4.413       4.361       4.273       4.119       3.793       4.132       4.301       4.407       4.481    
        4.534       4.572       4.598       4.614       4.621    
  20    4.391       4.365       4.310       4.223       4.107       4.001       4.122       4.254       4.360       4.439    
        4.496       4.537       4.565       4.583       4.591    

 HEAD WILL BE SAVED ON UNIT   51 AT END OF TIME STEP   34, STRESS PERIOD    2

 DRAWDOWN WILL BE SAVED ON UNIT   52 AT END OF TIME STEP   34, STRESS PERIOD    2
1
  VOLUMETRIC BUDGET FOR ENTIRE MODEL AT END OF TIME STEP   34, STRESS PERIOD   2
  ------------------------------------------------------------------------------

     CUMULATIVE VOLUMES      L**3       RATES FOR THIS TIME STEP      L**3/T
     ------------------                 ------------------------

           IN:                                      IN:
           ---                                      ---
             STORAGE =         683.3799               STORAGE =           0.0000
       CONSTANT HEAD =       26195.6367         CONSTANT HEAD =         704.8172
               WELLS =        7400.0000                 WELLS =         200.0000
       RIVER LEAKAGE =      155293.3750         RIVER LEAKAGE =        1523.7924

            TOTAL IN =      189572.3906              TOTAL IN =        2428.6096

          OUT:                                     OUT:
          ----                                     ----
             STORAGE =      169599.3594               STORAGE =        1878.6080
       CONSTANT HEAD =           0.0000         CONSTANT HEAD =           0.0000
               WELLS =       19300.0000                 WELLS =         550.0000
       RIVER LEAKAGE =         673.0626         RIVER LEAKAGE =           0.0000

           TOTAL OUT =      189572.4219             TOTAL OUT =        2428.6079

            IN - OUT =      -3.1250E-02              IN - OUT =       1.7090E-03

 PERCENT DISCREPANCY =          -0.00     PERCENT DISCREPANCY =           0.00






         TIME SUMMARY AT END OF TIME STEP   34 IN STRESS PERIOD    2
                    SECONDS     MINUTES      HOURS       DAYS        YEARS
                    -----------------------------------------------------------
   TIME STEP LENGTH  86400.      1440.0      24.000      1.0000     2.73785E-03
 STRESS PERIOD TIME 2.93760E+06  48960.      816.00      34.000     9.30869E-02
         TOTAL TIME 3.02400E+06  50400.      840.00      35.000     9.58248E-02
1
 
 SOLVING FOR HEAD 

 OUTPUT CONTROL FOR STRESS PERIOD    2   TIME STEP   35
    SAVE HEAD FOR ALL LAYERS
    SAVE DRAWDOWN FOR ALL LAYERS
    SAVE BUDGET
    PRINT HEAD FOR ALL LAYERS
    PRINT BUDGET
 UBDSV1 SAVING "         STORAGE" ON UNIT   1 AT TIME STEP 35, STRESS PERIOD   2
 UBDSV2 SAVING "   CONSTANT HEAD" ON UNIT   1 AT TIME STEP 35, STRESS PERIOD   2
 UBDSV1 SAVING "FLOW RIGHT FACE " ON UNIT   1 AT TIME STEP 35, STRESS PERIOD   2
 UBDSV1 SAVING "FLOW FRONT FACE " ON UNIT   1 AT TIME STEP 35, STRESS PERIOD   2
1
              HEAD IN LAYER   1 AT END OF TIME STEP  35 IN STRESS PERIOD    2
  ---------------------------------------------------------------------------

            1           2           3           4           5           6           7           8           9          10
           11          12          13          14          15
 ........................................................................................................................
   1    4.050       4.050       4.050       4.050       4.050       4.050       4.050       4.050       4.050       4.050    
        4.050       4.050       4.050       4.050       4.050    
   2    3.060       3.028       2.974       2.947       3.062       3.214       3.372       3.542       3.683       3.732    
        3.769       3.793       3.805       3.809       3.810    
   3    2.235       2.159       2.003       1.829       2.170       2.514       2.825       3.141       3.384       3.478    
        3.550       3.598       3.618       3.622       3.622    
   4    1.635       1.517       1.197      0.3245       1.426       2.000       2.432       2.851       3.168       3.299    
        3.409       3.488       3.502       3.495       3.488    
   5    1.315       1.243       1.101      0.9583       1.364       1.798       2.224       2.682       3.038       3.200    
        3.358       3.502       3.467       3.428       3.409    
   6    1.242       1.217       1.189       1.224       1.460       1.788       2.172       2.622       2.987       3.167    
        3.385       3.757       3.498       3.406       3.373    
   7    1.383       1.385       1.407       1.484       1.662       1.921       2.252       2.662       3.004       3.163    
        3.320       3.464       3.429       3.391       3.372    
   8    1.720       1.733       1.770       1.849       1.989       2.192       2.461       2.806       3.100       3.226    
        3.334       3.414       3.429       3.424       3.418    
   9    2.246       2.260       2.294       2.358       2.462       2.609       2.805       3.059       3.282       3.371    
        3.443       3.494       3.516       3.523       3.524    
  10    2.945       2.956       2.981       3.023       3.087       3.175       3.288       3.428       3.547       3.594    
        3.633       3.663       3.681       3.689       3.692    
  11    3.788       3.793       3.805       3.823       3.849       3.880       3.910       3.922       3.878       3.876    
        3.887       3.899       3.909       3.915       3.918    
  12    4.351       4.353       4.357       4.362       4.367       4.370       4.363       4.335       4.230       4.190    
        4.181       4.183       4.186       4.189       4.191    
  13    4.548       4.549       4.550       4.552       4.554       4.554       4.549       4.537       4.520       4.504    
        4.497       4.496       4.497       4.499       4.499    
  14    4.752       4.752       4.752       4.752       4.752       4.752       4.750       4.751       4.762       4.763    
        4.761       4.761       4.762       4.763       4.763    
  15    4.960       4.959       4.958       4.957       4.956       4.955       4.956       4.958       4.961       4.962    
        4.964       4.965       4.966       4.966       4.966    
  16    4.805       4.799       4.787       4.770       4.753       4.746       4.758       4.780       4.802       4.822    
        4.838       4.849       4.857       4.863       4.865    
  17    4.663       4.650       4.625       4.588       4.548       4.523       4.556       4.606       4.653       4.692    
        4.721       4.743       4.758       4.768       4.773    
  18    4.543       4.524       4.484       4.422       4.336       4.252       4.348       4.446       4.523       4.581    
        4.624       4.655       4.676       4.690       4.696    
  19    4.456       4.432       4.380       4.292       4.138       3.812       4.152       4.321       4.427       4.501    
        4.554       4.592       4.618       4.634       4.642    
  20    4.411       4.385       4.330       4.244       4.128       4.022       4.143       4.275       4.381       4.460    
        4.518       4.559       4.587       4.605       4.613    

 HEAD WILL BE SAVED ON UNIT   51 AT END OF TIME STEP   35, STRESS PERIOD    2

 DRAWDOWN WILL BE SAVED ON UNIT   52 AT END OF TIME STEP   35, STRESS PERIOD    2
1
  VOLUMETRIC BUDGET FOR ENTIRE MODEL AT END OF TIME STEP   35, STRESS PERIOD   2
  ------------------------------------------------------------------------------

     CUMULATIVE VOLUMES      L**3       RATES FOR THIS TIME STEP      L**3/T
     ------------------                 ------------------------

           IN:                                      IN:
           ---                                      ---
             STORAGE =         683.3799               STORAGE =           0.0000
       CONSTANT HEAD =       26896.6230         CONSTANT HEAD =         700.9866
               WELLS =        7600.0000                 WELLS =         200.0000
       RIVER LEAKAGE =      156772.4062         RIVER LEAKAGE =        1479.0308

            TOTAL IN =      191952.4062              TOTAL IN =        2380.0173

          OUT:                                     OUT:
          ----                                     ----
             STORAGE =      171429.3750               STORAGE =        1830.0161
       CONSTANT HEAD =           0.0000         CONSTANT HEAD =           0.0000
               WELLS =       19850.0000                 WELLS =         550.0000
       RIVER LEAKAGE =         673.0626         RIVER LEAKAGE =           0.0000

           TOTAL OUT =      191952.4375             TOTAL OUT =        2380.0161

            IN - OUT =      -3.1250E-02              IN - OUT =       1.2207E-03

 PERCENT DISCREPANCY =          -0.00     PERCENT DISCREPANCY =           0.00






         TIME SUMMARY AT END OF TIME STEP   35 IN STRESS PERIOD    2
                    SECONDS     MINUTES      HOURS       DAYS        YEARS
                    -----------------------------------------------------------
   TIME STEP LENGTH  86400.      1440.0      24.000      1.0000     2.73785E-03
 STRESS PERIOD TIME 3.02400E+06  50400.      840.00      35.000     9.58248E-02
         TOTAL TIME 3.11040E+06  51840.      864.00      36.000     9.85626E-02
1
 
 SOLVING FOR HEAD 

 OUTPUT CONTROL FOR STRESS PERIOD    2   TIME STEP   36
    SAVE HEAD FOR ALL LAYERS
    SAVE DRAWDOWN FOR ALL LAYERS
    SAVE BUDGET
    PRINT HEAD FOR ALL LAYERS
    PRINT BUDGET
 UBDSV1 SAVING "         STORAGE" ON UNIT   1 AT TIME STEP 36, STRESS PERIOD   2
 UBDSV2 SAVING "   CONSTANT HEAD" ON UNIT   1 AT TIME STEP 36, STRESS PERIOD   2
 UBDSV1 SAVING "FLOW RIGHT FACE " ON UNIT   1 AT TIME STEP 36, STRESS PERIOD   2
 UBDSV1 SAVING "FLOW FRONT FACE " ON UNIT   1 AT TIME STEP 36, STRESS PERIOD   2
1
              HEAD IN LAYER   1 AT END OF TIME STEP  36 IN STRESS PERIOD    2
  ---------------------------------------------------------------------------

            1           2           3           4           5           6           7           8           9          10
           11          12          13          14          15
 ........................................................................................................................
   1    4.080       4.080       4.080       4.080       4.080       4.080       4.080       4.080       4.080       4.080    
        4.080       4.080       4.080       4.080       4.080    
   2    3.092       3.059       3.006       2.979       3.094       3.247       3.404       3.574       3.715       3.765    
        3.802       3.826       3.838       3.842       3.843    
   3    2.268       2.192       2.037       1.863       2.205       2.548       2.860       3.176       3.420       3.513    
        3.585       3.634       3.654       3.658       3.658    
   4    1.669       1.552       1.233      0.3614       1.462       2.037       2.469       2.889       3.206       3.337    
        3.447       3.526       3.540       3.533       3.527    
   5    1.351       1.280       1.139      0.9966       1.403       1.837       2.264       2.722       3.078       3.240    
        3.398       3.542       3.507       3.469       3.449    
   6    1.281       1.256       1.229       1.265       1.501       1.830       2.214       2.664       3.029       3.209    
        3.426       3.798       3.540       3.448       3.415    
   7    1.424       1.426       1.448       1.527       1.705       1.965       2.296       2.706       3.046       3.205    
        3.362       3.505       3.471       3.433       3.414    
   8    1.762       1.775       1.812       1.892       2.032       2.236       2.505       2.849       3.141       3.267    
        3.375       3.455       3.471       3.465       3.459    
   9    2.286       2.300       2.335       2.399       2.503       2.651       2.847       3.100       3.321       3.409    
        3.481       3.532       3.555       3.562       3.562    
  10    2.979       2.990       3.015       3.057       3.122       3.211       3.324       3.463       3.581       3.628    
        3.667       3.698       3.715       3.724       3.726    
  11    3.811       3.816       3.828       3.846       3.873       3.904       3.935       3.947       3.905       3.904    
        3.915       3.928       3.938       3.944       3.947    
  12    4.364       4.366       4.370       4.375       4.381       4.384       4.378       4.351       4.249       4.211    
        4.202       4.204       4.208       4.211       4.213    
  13    4.557       4.558       4.560       4.562       4.564       4.564       4.559       4.549       4.532       4.517    
        4.511       4.510       4.511       4.512       4.513    
  14    4.757       4.757       4.758       4.758       4.758       4.757       4.756       4.757       4.768       4.769    
        4.768       4.768       4.769       4.769       4.770    
  15    4.961       4.960       4.959       4.958       4.957       4.956       4.957       4.959       4.962       4.964    
        4.965       4.966       4.967       4.967       4.968    
  16    4.811       4.805       4.793       4.776       4.760       4.752       4.764       4.786       4.809       4.829    
        4.844       4.856       4.864       4.869       4.872    
  17    4.673       4.661       4.635       4.599       4.559       4.534       4.567       4.617       4.664       4.703    
        4.733       4.755       4.770       4.780       4.784    
  18    4.557       4.538       4.499       4.436       4.351       4.267       4.363       4.461       4.538       4.597    
        4.640       4.671       4.692       4.705       4.712    
  19    4.474       4.449       4.397       4.309       4.156       3.830       4.170       4.339       4.445       4.520    
        4.573       4.611       4.636       4.652       4.660    
  20    4.430       4.404       4.349       4.263       4.147       4.041       4.163       4.295       4.401       4.480    
        4.538       4.579       4.607       4.625       4.633    

 HEAD WILL BE SAVED ON UNIT   51 AT END OF TIME STEP   36, STRESS PERIOD    2

 DRAWDOWN WILL BE SAVED ON UNIT   52 AT END OF TIME STEP   36, STRESS PERIOD    2
1
  VOLUMETRIC BUDGET FOR ENTIRE MODEL AT END OF TIME STEP   36, STRESS PERIOD   2
  ------------------------------------------------------------------------------

     CUMULATIVE VOLUMES      L**3       RATES FOR THIS TIME STEP      L**3/T
     ------------------                 ------------------------

           IN:                                      IN:
           ---                                      ---
             STORAGE =         683.3799               STORAGE =           0.0000
       CONSTANT HEAD =       27593.8535         CONSTANT HEAD =         697.2313
               WELLS =        7800.0000                 WELLS =         200.0000
       RIVER LEAKAGE =      158209.3438         RIVER LEAKAGE =        1436.9363

            TOTAL IN =      194286.5781              TOTAL IN =        2334.1675

          OUT:                                     OUT:
          ----                                     ----
             STORAGE =      173213.5469               STORAGE =        1784.1669
       CONSTANT HEAD =           0.0000         CONSTANT HEAD =           0.0000
               WELLS =       20400.0000                 WELLS =         550.0000
       RIVER LEAKAGE =         673.0626         RIVER LEAKAGE =           0.0000

           TOTAL OUT =      194286.6094             TOTAL OUT =        2334.1670

            IN - OUT =      -3.1250E-02              IN - OUT =       4.8828E-04

 PERCENT DISCREPANCY =          -0.00     PERCENT DISCREPANCY =           0.00






         TIME SUMMARY AT END OF TIME STEP   36 IN STRESS PERIOD    2
                    SECONDS     MINUTES      HOURS       DAYS        YEARS
                    -----------------------------------------------------------
   TIME STEP LENGTH  86400.      1440.0      24.000      1.0000     2.73785E-03
 STRESS PERIOD TIME 3.11040E+06  51840.      864.00      36.000     9.85626E-02
         TOTAL TIME 3.19680E+06  53280.      888.00      37.000     0.10130    
1
 
 SOLVING FOR HEAD 

 OUTPUT CONTROL FOR STRESS PERIOD    2   TIME STEP   37
    SAVE HEAD FOR ALL LAYERS
    SAVE DRAWDOWN FOR ALL LAYERS
    SAVE BUDGET
    PRINT HEAD FOR ALL LAYERS
    PRINT BUDGET
 UBDSV1 SAVING "         STORAGE" ON UNIT   1 AT TIME STEP 37, STRESS PERIOD   2
 UBDSV2 SAVING "   CONSTANT HEAD" ON UNIT   1 AT TIME STEP 37, STRESS PERIOD   2
 UBDSV1 SAVING "FLOW RIGHT FACE " ON UNIT   1 AT TIME STEP 37, STRESS PERIOD   2
 UBDSV1 SAVING "FLOW FRONT FACE " ON UNIT   1 AT TIME STEP 37, STRESS PERIOD   2
1
              HEAD IN LAYER   1 AT END OF TIME STEP  37 IN STRESS PERIOD    2
  ---------------------------------------------------------------------------

            1           2           3           4           5           6           7           8           9          10
           11          12          13          14          15
 ........................................................................................................................
   1    4.110       4.110       4.110       4.110       4.110       4.110       4.110       4.110       4.110       4.110    
        4.110       4.110       4.110       4.110       4.110    
   2    3.123       3.091       3.038       3.011       3.126       3.279       3.437       3.607       3.748       3.798    
        3.834       3.859       3.871       3.875       3.876    
   3    2.301       2.226       2.071       1.897       2.239       2.583       2.895       3.211       3.455       3.549    
        3.621       3.669       3.689       3.694       3.693    
   4    1.704       1.588       1.268      0.3983       1.499       2.074       2.507       2.927       3.244       3.375    
        3.485       3.564       3.578       3.572       3.565    
   5    1.388       1.317       1.176       1.035       1.442       1.876       2.304       2.762       3.118       3.280    
        3.438       3.581       3.547       3.509       3.489    
   6    1.320       1.296       1.268       1.305       1.542       1.871       2.256       2.706       3.070       3.250    
        3.467       3.839       3.581       3.489       3.456    
   7    1.465       1.467       1.490       1.569       1.748       2.008       2.339       2.748       3.088       3.246    
        3.403       3.546       3.512       3.474       3.455    
   8    1.804       1.817       1.854       1.934       2.076       2.280       2.549       2.892       3.182       3.307    
        3.415       3.495       3.511       3.505       3.499    
   9    2.325       2.340       2.375       2.440       2.544       2.692       2.887       3.140       3.359       3.447    
        3.519       3.570       3.593       3.599       3.600    
  10    3.012       3.023       3.048       3.091       3.156       3.245       3.358       3.497       3.614       3.661    
        3.700       3.731       3.749       3.757       3.760    
  11    3.832       3.838       3.850       3.869       3.895       3.927       3.958       3.971       3.931       3.931    
        3.942       3.956       3.966       3.972       3.975    
  12    4.377       4.379       4.383       4.388       4.394       4.398       4.392       4.367       4.268       4.231    
        4.223       4.225       4.229       4.232       4.234    
  13    4.566       4.567       4.569       4.572       4.574       4.574       4.570       4.559       4.544       4.529    
        4.523       4.523       4.524       4.526       4.526    
  14    4.762       4.762       4.763       4.763       4.763       4.763       4.762       4.763       4.774       4.775    
        4.774       4.774       4.775       4.776       4.776    
  15    4.962       4.961       4.960       4.959       4.958       4.957       4.958       4.960       4.963       4.965    
        4.966       4.967       4.968       4.968       4.969    
  16    4.817       4.811       4.798       4.782       4.765       4.758       4.770       4.792       4.815       4.835    
        4.850       4.862       4.870       4.875       4.878    
  17    4.683       4.671       4.645       4.609       4.569       4.544       4.578       4.628       4.675       4.714    
        4.743       4.765       4.781       4.790       4.795    
  18    4.571       4.552       4.512       4.450       4.365       4.281       4.377       4.475       4.553       4.611    
        4.654       4.685       4.707       4.720       4.726    
  19    4.490       4.465       4.414       4.325       4.172       3.847       4.186       4.355       4.462       4.536    
        4.590       4.628       4.654       4.670       4.677    
  20    4.447       4.421       4.366       4.280       4.165       4.059       4.181       4.313       4.419       4.498    
        4.556       4.598       4.626       4.643       4.652    

 HEAD WILL BE SAVED ON UNIT   51 AT END OF TIME STEP   37, STRESS PERIOD    2

 DRAWDOWN WILL BE SAVED ON UNIT   52 AT END OF TIME STEP   37, STRESS PERIOD    2
1
  VOLUMETRIC BUDGET FOR ENTIRE MODEL AT END OF TIME STEP   37, STRESS PERIOD   2
  ------------------------------------------------------------------------------

     CUMULATIVE VOLUMES      L**3       RATES FOR THIS TIME STEP      L**3/T
     ------------------                 ------------------------

           IN:                                      IN:
           ---                                      ---
             STORAGE =         683.3799               STORAGE =           0.0000
       CONSTANT HEAD =       28287.4141         CONSTANT HEAD =         693.5596
               WELLS =        8000.0000                 WELLS =         200.0000
       RIVER LEAKAGE =      159606.6562         RIVER LEAKAGE =        1397.3062

            TOTAL IN =      196577.4531              TOTAL IN =        2290.8657

          OUT:                                     OUT:
          ----                                     ----
             STORAGE =      174954.4062               STORAGE =        1740.8632
       CONSTANT HEAD =           0.0000         CONSTANT HEAD =           0.0000
               WELLS =       20950.0000                 WELLS =         550.0000
       RIVER LEAKAGE =         673.0626         RIVER LEAKAGE =           0.0000

           TOTAL OUT =      196577.4688             TOTAL OUT =        2290.8633

            IN - OUT =      -1.5625E-02              IN - OUT =       2.4414E-03

 PERCENT DISCREPANCY =          -0.00     PERCENT DISCREPANCY =           0.00






         TIME SUMMARY AT END OF TIME STEP   37 IN STRESS PERIOD    2
                    SECONDS     MINUTES      HOURS       DAYS        YEARS
                    -----------------------------------------------------------
   TIME STEP LENGTH  86400.      1440.0      24.000      1.0000     2.73785E-03
 STRESS PERIOD TIME 3.19680E+06  53280.      888.00      37.000     0.10130    
         TOTAL TIME 3.28320E+06  54720.      912.00      38.000     0.10404    
1
 
 SOLVING FOR HEAD 

 OUTPUT CONTROL FOR STRESS PERIOD    2   TIME STEP   38
    SAVE HEAD FOR ALL LAYERS
    SAVE DRAWDOWN FOR ALL LAYERS
    SAVE BUDGET
    PRINT HEAD FOR ALL LAYERS
    PRINT BUDGET
 UBDSV1 SAVING "         STORAGE" ON UNIT   1 AT TIME STEP 38, STRESS PERIOD   2
 UBDSV2 SAVING "   CONSTANT HEAD" ON UNIT   1 AT TIME STEP 38, STRESS PERIOD   2
 UBDSV1 SAVING "FLOW RIGHT FACE " ON UNIT   1 AT TIME STEP 38, STRESS PERIOD   2
 UBDSV1 SAVING "FLOW FRONT FACE " ON UNIT   1 AT TIME STEP 38, STRESS PERIOD   2
1
              HEAD IN LAYER   1 AT END OF TIME STEP  38 IN STRESS PERIOD    2
  ---------------------------------------------------------------------------

            1           2           3           4           5           6           7           8           9          10
           11          12          13          14          15
 ........................................................................................................................
   1    4.140       4.140       4.140       4.140       4.140       4.140       4.140       4.140       4.140       4.140    
        4.140       4.140       4.140       4.140       4.140    
   2    3.155       3.123       3.070       3.043       3.158       3.311       3.469       3.640       3.781       3.831    
        3.867       3.891       3.904       3.908       3.909    
   3    2.335       2.259       2.104       1.932       2.273       2.617       2.929       3.246       3.490       3.584    
        3.656       3.705       3.725       3.729       3.729    
   4    1.739       1.623       1.304      0.4353       1.536       2.111       2.544       2.964       3.281       3.412    
        3.522       3.601       3.616       3.609       3.603    
   5    1.425       1.354       1.214       1.073       1.481       1.916       2.343       2.801       3.158       3.319    
        3.477       3.621       3.586       3.548       3.529    
   6    1.359       1.335       1.308       1.345       1.583       1.913       2.297       2.747       3.111       3.290    
        3.507       3.879       3.621       3.530       3.497    
   7    1.505       1.508       1.531       1.611       1.790       2.051       2.382       2.791       3.129       3.286    
        3.443       3.587       3.552       3.515       3.496    
   8    1.844       1.858       1.896       1.976       2.118       2.323       2.591       2.933       3.222       3.346    
        3.454       3.534       3.550       3.545       3.539    
   9    2.363       2.378       2.414       2.479       2.584       2.732       2.927       3.179       3.395       3.483    
        3.555       3.606       3.629       3.636       3.637    
  10    3.044       3.055       3.080       3.124       3.189       3.278       3.391       3.530       3.646       3.693    
        3.733       3.763       3.781       3.790       3.793    
  11    3.853       3.859       3.871       3.890       3.917       3.949       3.981       3.995       3.957       3.957    
        3.969       3.982       3.993       3.999       4.002    
  12    4.389       4.391       4.395       4.401       4.407       4.411       4.406       4.381       4.285       4.250    
        4.243       4.245       4.249       4.253       4.255    
  13    4.575       4.576       4.578       4.581       4.583       4.583       4.580       4.570       4.555       4.541    
        4.536       4.535       4.537       4.538       4.539    
  14    4.767       4.767       4.768       4.768       4.768       4.768       4.768       4.768       4.780       4.781    
        4.780       4.780       4.781       4.782       4.782    
  15    4.963       4.962       4.961       4.960       4.959       4.958       4.959       4.961       4.964       4.966    
        4.967       4.968       4.969       4.970       4.970    
  16    4.822       4.816       4.804       4.787       4.771       4.763       4.776       4.797       4.820       4.840    
        4.856       4.867       4.876       4.881       4.884    
  17    4.692       4.680       4.655       4.619       4.578       4.554       4.587       4.637       4.684       4.723    
        4.753       4.775       4.791       4.800       4.805    
  18    4.583       4.564       4.525       4.463       4.378       4.293       4.390       4.488       4.566       4.624    
        4.667       4.698       4.720       4.733       4.740    
  19    4.504       4.480       4.429       4.340       4.187       3.862       4.202       4.371       4.478       4.552    
        4.605       4.643       4.669       4.686       4.693    
  20    4.463       4.437       4.382       4.296       4.181       4.075       4.197       4.330       4.436       4.515    
        4.573       4.615       4.643       4.661       4.669    

 HEAD WILL BE SAVED ON UNIT   51 AT END OF TIME STEP   38, STRESS PERIOD    2

 DRAWDOWN WILL BE SAVED ON UNIT   52 AT END OF TIME STEP   38, STRESS PERIOD    2
1
  VOLUMETRIC BUDGET FOR ENTIRE MODEL AT END OF TIME STEP   38, STRESS PERIOD   2
  ------------------------------------------------------------------------------

     CUMULATIVE VOLUMES      L**3       RATES FOR THIS TIME STEP      L**3/T
     ------------------                 ------------------------

           IN:                                      IN:
           ---                                      ---
             STORAGE =         683.3799               STORAGE =           0.0000
       CONSTANT HEAD =       28977.3906         CONSTANT HEAD =         689.9761
               WELLS =        8200.0000                 WELLS =         200.0000
       RIVER LEAKAGE =      160966.6094         RIVER LEAKAGE =        1359.9518

            TOTAL IN =      198827.3750              TOTAL IN =        2249.9280

          OUT:                                     OUT:
          ----                                     ----
             STORAGE =      176654.3281               STORAGE =        1699.9254
       CONSTANT HEAD =           0.0000         CONSTANT HEAD =           0.0000
               WELLS =       21500.0000                 WELLS =         550.0000
       RIVER LEAKAGE =         673.0626         RIVER LEAKAGE =           0.0000

           TOTAL OUT =      198827.3906             TOTAL OUT =        2249.9253

            IN - OUT =      -1.5625E-02              IN - OUT =       2.6855E-03

 PERCENT DISCREPANCY =          -0.00     PERCENT DISCREPANCY =           0.00






         TIME SUMMARY AT END OF TIME STEP   38 IN STRESS PERIOD    2
                    SECONDS     MINUTES      HOURS       DAYS        YEARS
                    -----------------------------------------------------------
   TIME STEP LENGTH  86400.      1440.0      24.000      1.0000     2.73785E-03
 STRESS PERIOD TIME 3.28320E+06  54720.      912.00      38.000     0.10404    
         TOTAL TIME 3.36960E+06  56160.      936.00      39.000     0.10678    
1
 
 SOLVING FOR HEAD 

 OUTPUT CONTROL FOR STRESS PERIOD    2   TIME STEP   39
    SAVE HEAD FOR ALL LAYERS
    SAVE DRAWDOWN FOR ALL LAYERS
    SAVE BUDGET
    PRINT HEAD FOR ALL LAYERS
    PRINT BUDGET
 UBDSV1 SAVING "         STORAGE" ON UNIT   1 AT TIME STEP 39, STRESS PERIOD   2
 UBDSV2 SAVING "   CONSTANT HEAD" ON UNIT   1 AT TIME STEP 39, STRESS PERIOD   2
 UBDSV1 SAVING "FLOW RIGHT FACE " ON UNIT   1 AT TIME STEP 39, STRESS PERIOD   2
 UBDSV1 SAVING "FLOW FRONT FACE " ON UNIT   1 AT TIME STEP 39, STRESS PERIOD   2
1
              HEAD IN LAYER   1 AT END OF TIME STEP  39 IN STRESS PERIOD    2
  ---------------------------------------------------------------------------

            1           2           3           4           5           6           7           8           9          10
           11          12          13          14          15
 ........................................................................................................................
   1    4.170       4.170       4.170       4.170       4.170       4.170       4.170       4.170       4.170       4.170    
        4.170       4.170       4.170       4.170       4.170    
   2    3.186       3.155       3.102       3.075       3.190       3.343       3.501       3.672       3.813       3.863    
        3.900       3.924       3.936       3.941       3.942    
   3    2.368       2.293       2.138       1.966       2.308       2.652       2.964       3.281       3.525       3.619    
        3.691       3.740       3.760       3.764       3.764    
   4    1.774       1.658       1.340      0.4723       1.572       2.148       2.581       3.002       3.319       3.449    
        3.559       3.638       3.653       3.647       3.640    
   5    1.462       1.391       1.252       1.112       1.520       1.955       2.383       2.841       3.197       3.358    
        3.516       3.659       3.625       3.587       3.568    
   6    1.397       1.374       1.348       1.386       1.624       1.954       2.339       2.788       3.151       3.330    
        3.547       3.918       3.661       3.569       3.537    
   7    1.546       1.549       1.572       1.652       1.832       2.094       2.425       2.832       3.169       3.326    
        3.483       3.626       3.592       3.555       3.536    
   8    1.885       1.899       1.937       2.018       2.160       2.365       2.633       2.974       3.261       3.385    
        3.493       3.572       3.588       3.583       3.577    
   9    2.401       2.416       2.452       2.518       2.623       2.771       2.966       3.216       3.431       3.519    
        3.591       3.642       3.665       3.672       3.673    
  10    3.075       3.086       3.112       3.155       3.221       3.310       3.424       3.562       3.677       3.724    
        3.764       3.795       3.813       3.822       3.825    
  11    3.873       3.879       3.891       3.911       3.938       3.971       4.003       4.018       3.981       3.983    
        3.995       4.008       4.019       4.025       4.028    
  12    4.401       4.403       4.407       4.413       4.419       4.423       4.419       4.396       4.302       4.268    
        4.262       4.265       4.269       4.273       4.274    
  13    4.583       4.584       4.587       4.589       4.592       4.592       4.589       4.580       4.566       4.552    
        4.547       4.547       4.549       4.551       4.552    
  14    4.772       4.772       4.773       4.773       4.773       4.773       4.773       4.774       4.785       4.786    
        4.786       4.786       4.787       4.788       4.788    
  15    4.964       4.963       4.962       4.961       4.959       4.959       4.960       4.962       4.965       4.967    
        4.968       4.969       4.970       4.971       4.971    
  16    4.827       4.821       4.809       4.792       4.776       4.768       4.781       4.802       4.825       4.845    
        4.861       4.873       4.881       4.886       4.889    
  17    4.701       4.688       4.663       4.627       4.587       4.562       4.596       4.646       4.693       4.732    
        4.762       4.784       4.800       4.809       4.814    
  18    4.595       4.576       4.536       4.474       4.389       4.305       4.402       4.500       4.578       4.636    
        4.679       4.711       4.732       4.746       4.752    
  19    4.518       4.494       4.442       4.354       4.201       3.876       4.216       4.385       4.492       4.566    
        4.620       4.658       4.684       4.700       4.708    
  20    4.478       4.452       4.397       4.312       4.197       4.091       4.213       4.345       4.451       4.531    
        4.589       4.630       4.659       4.676       4.685    

 HEAD WILL BE SAVED ON UNIT   51 AT END OF TIME STEP   39, STRESS PERIOD    2

 DRAWDOWN WILL BE SAVED ON UNIT   52 AT END OF TIME STEP   39, STRESS PERIOD    2
1
  VOLUMETRIC BUDGET FOR ENTIRE MODEL AT END OF TIME STEP   39, STRESS PERIOD   2
  ------------------------------------------------------------------------------

     CUMULATIVE VOLUMES      L**3       RATES FOR THIS TIME STEP      L**3/T
     ------------------                 ------------------------

           IN:                                      IN:
           ---                                      ---
             STORAGE =         683.3799               STORAGE =           0.0000
       CONSTANT HEAD =       29663.8789         CONSTANT HEAD =         686.4874
               WELLS =        8400.0000                 WELLS =         200.0000
       RIVER LEAKAGE =      162291.3125         RIVER LEAKAGE =        1324.7037

            TOTAL IN =      201038.5625              TOTAL IN =        2211.1912

          OUT:                                     OUT:
          ----                                     ----
             STORAGE =      178315.5156               STORAGE =        1661.1904
       CONSTANT HEAD =           0.0000         CONSTANT HEAD =           0.0000
               WELLS =       22050.0000                 WELLS =         550.0000
       RIVER LEAKAGE =         673.0626         RIVER LEAKAGE =           0.0000

           TOTAL OUT =      201038.5781             TOTAL OUT =        2211.1904

            IN - OUT =      -1.5625E-02              IN - OUT =       7.3242E-04

 PERCENT DISCREPANCY =          -0.00     PERCENT DISCREPANCY =           0.00






         TIME SUMMARY AT END OF TIME STEP   39 IN STRESS PERIOD    2
                    SECONDS     MINUTES      HOURS       DAYS        YEARS
                    -----------------------------------------------------------
   TIME STEP LENGTH  86400.      1440.0      24.000      1.0000     2.73785E-03
 STRESS PERIOD TIME 3.36960E+06  56160.      936.00      39.000     0.10678    
         TOTAL TIME 3.45600E+06  57600.      960.00      40.000     0.10951    
1
 
 SOLVING FOR HEAD 

 OUTPUT CONTROL FOR STRESS PERIOD    2   TIME STEP   40
    SAVE HEAD FOR ALL LAYERS
    SAVE DRAWDOWN FOR ALL LAYERS
    SAVE BUDGET
    PRINT HEAD FOR ALL LAYERS
    PRINT BUDGET
 UBDSV1 SAVING "         STORAGE" ON UNIT   1 AT TIME STEP 40, STRESS PERIOD   2
 UBDSV2 SAVING "   CONSTANT HEAD" ON UNIT   1 AT TIME STEP 40, STRESS PERIOD   2
 UBDSV1 SAVING "FLOW RIGHT FACE " ON UNIT   1 AT TIME STEP 40, STRESS PERIOD   2
 UBDSV1 SAVING "FLOW FRONT FACE " ON UNIT   1 AT TIME STEP 40, STRESS PERIOD   2
1
              HEAD IN LAYER   1 AT END OF TIME STEP  40 IN STRESS PERIOD    2
  ---------------------------------------------------------------------------

            1           2           3           4           5           6           7           8           9          10
           11          12          13          14          15
 ........................................................................................................................
   1    4.200       4.200       4.200       4.200       4.200       4.200       4.200       4.200       4.200       4.200    
        4.200       4.200       4.200       4.200       4.200    
   2    3.218       3.186       3.134       3.107       3.223       3.376       3.534       3.705       3.846       3.896    
        3.932       3.957       3.969       3.973       3.974    
   3    2.401       2.326       2.172       2.000       2.342       2.687       2.999       3.316       3.560       3.654    
        3.726       3.775       3.795       3.799       3.799    
   4    1.809       1.694       1.376      0.5094       1.609       2.185       2.618       3.039       3.356       3.486    
        3.596       3.675       3.690       3.684       3.677    
   5    1.499       1.429       1.290       1.150       1.558       1.994       2.422       2.880       3.235       3.396    
        3.554       3.698       3.663       3.626       3.606    
   6    1.436       1.413       1.387       1.426       1.665       1.995       2.380       2.829       3.191       3.369    
        3.586       3.957       3.700       3.609       3.576    
   7    1.586       1.589       1.613       1.693       1.874       2.136       2.467       2.874       3.209       3.365    
        3.522       3.665       3.631       3.594       3.575    
   8    1.925       1.939       1.977       2.059       2.201       2.407       2.675       3.014       3.299       3.422    
        3.530       3.610       3.626       3.621       3.615    
   9    2.438       2.453       2.489       2.555       2.661       2.809       3.004       3.253       3.467       3.554    
        3.625       3.677       3.700       3.707       3.708    
  10    3.105       3.117       3.142       3.186       3.252       3.342       3.455       3.593       3.708       3.754    
        3.795       3.825       3.844       3.852       3.856    
  11    3.893       3.899       3.911       3.931       3.958       3.991       4.024       4.040       4.005       4.007    
        4.020       4.034       4.045       4.051       4.054    
  12    4.412       4.414       4.418       4.424       4.431       4.435       4.432       4.410       4.319       4.286    
        4.280       4.283       4.288       4.292       4.294    
  13    4.591       4.592       4.595       4.597       4.600       4.601       4.598       4.590       4.576       4.563    
        4.559       4.559       4.561       4.563       4.564    
  14    4.776       4.777       4.777       4.778       4.778       4.778       4.778       4.779       4.790       4.791    
        4.791       4.792       4.793       4.793       4.794    
  15    4.965       4.964       4.963       4.962       4.960       4.960       4.961       4.963       4.966       4.968    
        4.969       4.970       4.971       4.971       4.972    
  16    4.832       4.825       4.813       4.797       4.780       4.773       4.785       4.807       4.830       4.850    
        4.866       4.878       4.886       4.891       4.894    
  17    4.709       4.696       4.671       4.635       4.595       4.570       4.604       4.654       4.702       4.741    
        4.771       4.793       4.808       4.818       4.822    
  18    4.605       4.586       4.547       4.485       4.400       4.316       4.413       4.511       4.589       4.647    
        4.691       4.722       4.744       4.757       4.764    
  19    4.531       4.507       4.455       4.367       4.214       3.889       4.229       4.398       4.505       4.580    
        4.633       4.671       4.697       4.714       4.721    
  20    4.492       4.466       4.411       4.325       4.211       4.105       4.227       4.359       4.466       4.545    
        4.603       4.645       4.673       4.691       4.700    

 HEAD WILL BE SAVED ON UNIT   51 AT END OF TIME STEP   40, STRESS PERIOD    2

 DRAWDOWN WILL BE SAVED ON UNIT   52 AT END OF TIME STEP   40, STRESS PERIOD    2
1
  VOLUMETRIC BUDGET FOR ENTIRE MODEL AT END OF TIME STEP   40, STRESS PERIOD   2
  ------------------------------------------------------------------------------

     CUMULATIVE VOLUMES      L**3       RATES FOR THIS TIME STEP      L**3/T
     ------------------                 ------------------------

           IN:                                      IN:
           ---                                      ---
             STORAGE =         683.3799               STORAGE =           0.0000
       CONSTANT HEAD =       30346.9746         CONSTANT HEAD =         683.0964
               WELLS =        8600.0000                 WELLS =         200.0000
       RIVER LEAKAGE =      163582.7188         RIVER LEAKAGE =        1291.4071

            TOTAL IN =      203213.0781              TOTAL IN =        2174.5034

          OUT:                                     OUT:
          ----                                     ----
             STORAGE =      179940.0156               STORAGE =        1624.5020
       CONSTANT HEAD =           0.0000         CONSTANT HEAD =           0.0000
               WELLS =       22600.0000                 WELLS =         550.0000
       RIVER LEAKAGE =         673.0626         RIVER LEAKAGE =           0.0000

           TOTAL OUT =      203213.0781             TOTAL OUT =        2174.5020

            IN - OUT =           0.0000              IN - OUT =       1.4648E-03

 PERCENT DISCREPANCY =           0.00     PERCENT DISCREPANCY =           0.00






         TIME SUMMARY AT END OF TIME STEP   40 IN STRESS PERIOD    2
                    SECONDS     MINUTES      HOURS       DAYS        YEARS
                    -----------------------------------------------------------
   TIME STEP LENGTH  86400.      1440.0      24.000      1.0000     2.73785E-03
 STRESS PERIOD TIME 3.45600E+06  57600.      960.00      40.000     0.10951    
         TOTAL TIME 3.54240E+06  59040.      984.00      41.000     0.11225    
1
 
 SOLVING FOR HEAD 

 OUTPUT CONTROL FOR STRESS PERIOD    2   TIME STEP   41
    SAVE HEAD FOR ALL LAYERS
    SAVE DRAWDOWN FOR ALL LAYERS
    SAVE BUDGET
    PRINT HEAD FOR ALL LAYERS
    PRINT BUDGET
 UBDSV1 SAVING "         STORAGE" ON UNIT   1 AT TIME STEP 41, STRESS PERIOD   2
 UBDSV2 SAVING "   CONSTANT HEAD" ON UNIT   1 AT TIME STEP 41, STRESS PERIOD   2
 UBDSV1 SAVING "FLOW RIGHT FACE " ON UNIT   1 AT TIME STEP 41, STRESS PERIOD   2
 UBDSV1 SAVING "FLOW FRONT FACE " ON UNIT   1 AT TIME STEP 41, STRESS PERIOD   2
1
              HEAD IN LAYER   1 AT END OF TIME STEP  41 IN STRESS PERIOD    2
  ---------------------------------------------------------------------------

            1           2           3           4           5           6           7           8           9          10
           11          12          13          14          15
 ........................................................................................................................
   1    4.230       4.230       4.230       4.230       4.230       4.230       4.230       4.230       4.230       4.230    
        4.230       4.230       4.230       4.230       4.230    
   2    3.250       3.218       3.166       3.139       3.255       3.408       3.566       3.737       3.878       3.928    
        3.965       3.989       4.001       4.006       4.007    
   3    2.435       2.360       2.206       2.035       2.377       2.721       3.034       3.351       3.595       3.688    
        3.761       3.809       3.829       3.834       3.834    
   4    1.845       1.729       1.412      0.5465       1.646       2.222       2.656       3.076       3.392       3.523    
        3.633       3.712       3.727       3.720       3.714    
   5    1.536       1.466       1.327       1.189       1.597       2.033       2.461       2.919       3.274       3.434    
        3.592       3.736       3.701       3.664       3.644    
   6    1.475       1.452       1.427       1.466       1.705       2.036       2.421       2.869       3.230       3.408    
        3.624       3.995       3.738       3.647       3.615    
   7    1.626       1.629       1.653       1.734       1.916       2.177       2.508       2.914       3.248       3.404    
        3.560       3.703       3.669       3.632       3.613    
   8    1.964       1.978       2.017       2.099       2.242       2.447       2.715       3.053       3.336       3.460    
        3.567       3.647       3.662       3.657       3.652    
   9    2.474       2.489       2.526       2.592       2.698       2.847       3.041       3.290       3.501       3.588    
        3.659       3.711       3.734       3.741       3.742    
  10    3.135       3.146       3.172       3.216       3.282       3.372       3.486       3.623       3.737       3.784    
        3.824       3.855       3.874       3.883       3.886    
  11    3.912       3.918       3.930       3.950       3.978       4.011       4.045       4.062       4.029       4.031    
        4.044       4.058       4.069       4.076       4.079    
  12    4.423       4.425       4.429       4.436       4.442       4.447       4.445       4.423       4.335       4.303    
        4.298       4.302       4.307       4.310       4.312    
  13    4.599       4.600       4.602       4.605       4.608       4.610       4.607       4.599       4.586       4.574    
        4.570       4.570       4.572       4.574       4.575    
  14    4.781       4.781       4.781       4.782       4.783       4.783       4.783       4.784       4.795       4.797    
        4.797       4.797       4.798       4.799       4.800    
  15    4.965       4.965       4.964       4.962       4.961       4.961       4.962       4.964       4.967       4.968    
        4.970       4.971       4.972       4.972       4.973    
  16    4.836       4.829       4.817       4.801       4.785       4.777       4.790       4.812       4.834       4.854    
        4.870       4.882       4.890       4.896       4.898    
  17    4.716       4.703       4.679       4.643       4.602       4.578       4.612       4.662       4.709       4.748    
        4.778       4.800       4.816       4.826       4.830    
  18    4.615       4.596       4.557       4.495       4.410       4.327       4.423       4.521       4.599       4.658    
        4.701       4.732       4.754       4.768       4.774    
  19    4.543       4.518       4.467       4.379       4.226       3.902       4.241       4.410       4.517       4.592    
        4.646       4.684       4.710       4.726       4.734    
  20    4.505       4.479       4.424       4.338       4.224       4.118       4.240       4.372       4.479       4.559    
        4.617       4.658       4.687       4.705       4.713    

 HEAD WILL BE SAVED ON UNIT   51 AT END OF TIME STEP   41, STRESS PERIOD    2

 DRAWDOWN WILL BE SAVED ON UNIT   52 AT END OF TIME STEP   41, STRESS PERIOD    2
1
  VOLUMETRIC BUDGET FOR ENTIRE MODEL AT END OF TIME STEP   41, STRESS PERIOD   2
  ------------------------------------------------------------------------------

     CUMULATIVE VOLUMES      L**3       RATES FOR THIS TIME STEP      L**3/T
     ------------------                 ------------------------

           IN:                                      IN:
           ---                                      ---
             STORAGE =         683.3799               STORAGE =           0.0000
       CONSTANT HEAD =       31026.7832         CONSTANT HEAD =         679.8083
               WELLS =        8800.0000                 WELLS =         200.0000
       RIVER LEAKAGE =      164842.6406         RIVER LEAKAGE =        1259.9153

            TOTAL IN =      205352.8125              TOTAL IN =        2139.7236

          OUT:                                     OUT:
          ----                                     ----
             STORAGE =      181529.7344               STORAGE =        1589.7222
       CONSTANT HEAD =           0.0000         CONSTANT HEAD =           0.0000
               WELLS =       23150.0000                 WELLS =         550.0000
       RIVER LEAKAGE =         673.0626         RIVER LEAKAGE =           0.0000

           TOTAL OUT =      205352.7969             TOTAL OUT =        2139.7222

            IN - OUT =       1.5625E-02              IN - OUT =       1.4648E-03

 PERCENT DISCREPANCY =           0.00     PERCENT DISCREPANCY =           0.00






         TIME SUMMARY AT END OF TIME STEP   41 IN STRESS PERIOD    2
                    SECONDS     MINUTES      HOURS       DAYS        YEARS
                    -----------------------------------------------------------
   TIME STEP LENGTH  86400.      1440.0      24.000      1.0000     2.73785E-03
 STRESS PERIOD TIME 3.54240E+06  59040.      984.00      41.000     0.11225    
         TOTAL TIME 3.62880E+06  60480.      1008.0      42.000     0.11499    
1
 
 SOLVING FOR HEAD 

 OUTPUT CONTROL FOR STRESS PERIOD    2   TIME STEP   42
    SAVE HEAD FOR ALL LAYERS
    SAVE DRAWDOWN FOR ALL LAYERS
    SAVE BUDGET
    PRINT HEAD FOR ALL LAYERS
    PRINT BUDGET
 UBDSV1 SAVING "         STORAGE" ON UNIT   1 AT TIME STEP 42, STRESS PERIOD   2
 UBDSV2 SAVING "   CONSTANT HEAD" ON UNIT   1 AT TIME STEP 42, STRESS PERIOD   2
 UBDSV1 SAVING "FLOW RIGHT FACE " ON UNIT   1 AT TIME STEP 42, STRESS PERIOD   2
 UBDSV1 SAVING "FLOW FRONT FACE " ON UNIT   1 AT TIME STEP 42, STRESS PERIOD   2
1
              HEAD IN LAYER   1 AT END OF TIME STEP  42 IN STRESS PERIOD    2
  ---------------------------------------------------------------------------

            1           2           3           4           5           6           7           8           9          10
           11          12          13          14          15
 ........................................................................................................................
   1    4.260       4.260       4.260       4.260       4.260       4.260       4.260       4.260       4.260       4.260    
        4.260       4.260       4.260       4.260       4.260    
   2    3.281       3.250       3.198       3.171       3.287       3.440       3.599       3.770       3.910       3.960    
        3.997       4.021       4.034       4.038       4.039    
   3    2.468       2.393       2.240       2.069       2.411       2.756       3.069       3.386       3.629       3.723    
        3.795       3.844       3.864       3.868       3.868    
   4    1.880       1.765       1.448      0.5836       1.683       2.259       2.693       3.113       3.429       3.559    
        3.669       3.748       3.763       3.757       3.750    
   5    1.573       1.503       1.365       1.227       1.636       2.072       2.500       2.958       3.312       3.472    
        3.630       3.773       3.739       3.701       3.682    
   6    1.514       1.491       1.466       1.506       1.745       2.076       2.461       2.909       3.268       3.446    
        3.662       4.033       3.776       3.685       3.653    
   7    1.665       1.669       1.694       1.775       1.957       2.219       2.549       2.954       3.286       3.442    
        3.597       3.741       3.707       3.669       3.651    
   8    2.003       2.017       2.057       2.139       2.282       2.488       2.755       3.092       3.373       3.496    
        3.603       3.683       3.698       3.693       3.688    
   9    2.510       2.525       2.562       2.629       2.735       2.883       3.078       3.325       3.535       3.621    
        3.693       3.744       3.767       3.774       3.775    
  10    3.163       3.175       3.201       3.245       3.312       3.402       3.516       3.653       3.766       3.813    
        3.853       3.884       3.903       3.912       3.915    
  11    3.930       3.936       3.948       3.969       3.997       4.031       4.065       4.083       4.051       4.054    
        4.067       4.082       4.093       4.100       4.103    
  12    4.433       4.435       4.440       4.446       4.453       4.459       4.457       4.436       4.350       4.320    
        4.316       4.319       4.325       4.328       4.330    
  13    4.606       4.608       4.610       4.613       4.616       4.618       4.616       4.608       4.596       4.584    
        4.581       4.581       4.583       4.585       4.586    
  14    4.785       4.785       4.786       4.786       4.787       4.788       4.788       4.789       4.800       4.802    
        4.802       4.802       4.803       4.804       4.805    
  15    4.966       4.966       4.965       4.963       4.962       4.961       4.962       4.964       4.967       4.969    
        4.971       4.972       4.973       4.973       4.974    
  16    4.840       4.833       4.821       4.805       4.789       4.781       4.794       4.816       4.839       4.858    
        4.874       4.886       4.894       4.900       4.902    
  17    4.723       4.710       4.685       4.649       4.609       4.585       4.619       4.669       4.716       4.755    
        4.785       4.808       4.823       4.833       4.837    
  18    4.625       4.606       4.566       4.504       4.420       4.336       4.433       4.531       4.609       4.667    
        4.711       4.742       4.764       4.777       4.784    
  19    4.553       4.529       4.478       4.390       4.237       3.913       4.253       4.422       4.529       4.603    
        4.657       4.695       4.721       4.738       4.746    
  20    4.517       4.490       4.436       4.350       4.236       4.130       4.252       4.385       4.491       4.571    
        4.629       4.671       4.699       4.717       4.726    

 HEAD WILL BE SAVED ON UNIT   51 AT END OF TIME STEP   42, STRESS PERIOD    2

 DRAWDOWN WILL BE SAVED ON UNIT   52 AT END OF TIME STEP   42, STRESS PERIOD    2
1
  VOLUMETRIC BUDGET FOR ENTIRE MODEL AT END OF TIME STEP   42, STRESS PERIOD   2
  ------------------------------------------------------------------------------

     CUMULATIVE VOLUMES      L**3       RATES FOR THIS TIME STEP      L**3/T
     ------------------                 ------------------------

           IN:                                      IN:
           ---                                      ---
             STORAGE =         683.3799               STORAGE =           0.0000
       CONSTANT HEAD =       31703.4082         CONSTANT HEAD =         676.6254
               WELLS =        9000.0000                 WELLS =         200.0000
       RIVER LEAKAGE =      166072.7344         RIVER LEAKAGE =        1230.1005

            TOTAL IN =      207459.5312              TOTAL IN =        2106.7258

          OUT:                                     OUT:
          ----                                     ----
             STORAGE =      183086.4531               STORAGE =        1556.7249
       CONSTANT HEAD =           0.0000         CONSTANT HEAD =           0.0000
               WELLS =       23700.0000                 WELLS =         550.0000
       RIVER LEAKAGE =         673.0626         RIVER LEAKAGE =           0.0000

           TOTAL OUT =      207459.5156             TOTAL OUT =        2106.7249

            IN - OUT =       1.5625E-02              IN - OUT =       9.7656E-04

 PERCENT DISCREPANCY =           0.00     PERCENT DISCREPANCY =           0.00






         TIME SUMMARY AT END OF TIME STEP   42 IN STRESS PERIOD    2
                    SECONDS     MINUTES      HOURS       DAYS        YEARS
                    -----------------------------------------------------------
   TIME STEP LENGTH  86400.      1440.0      24.000      1.0000     2.73785E-03
 STRESS PERIOD TIME 3.62880E+06  60480.      1008.0      42.000     0.11499    
         TOTAL TIME 3.71520E+06  61920.      1032.0      43.000     0.11773    
1
 
 SOLVING FOR HEAD 

 OUTPUT CONTROL FOR STRESS PERIOD    2   TIME STEP   43
    SAVE HEAD FOR ALL LAYERS
    SAVE DRAWDOWN FOR ALL LAYERS
    SAVE BUDGET
    PRINT HEAD FOR ALL LAYERS
    PRINT BUDGET
 UBDSV1 SAVING "         STORAGE" ON UNIT   1 AT TIME STEP 43, STRESS PERIOD   2
 UBDSV2 SAVING "   CONSTANT HEAD" ON UNIT   1 AT TIME STEP 43, STRESS PERIOD   2
 UBDSV1 SAVING "FLOW RIGHT FACE " ON UNIT   1 AT TIME STEP 43, STRESS PERIOD   2
 UBDSV1 SAVING "FLOW FRONT FACE " ON UNIT   1 AT TIME STEP 43, STRESS PERIOD   2
1
              HEAD IN LAYER   1 AT END OF TIME STEP  43 IN STRESS PERIOD    2
  ---------------------------------------------------------------------------

            1           2           3           4           5           6           7           8           9          10
           11          12          13          14          15
 ........................................................................................................................
   1    4.290       4.290       4.290       4.290       4.290       4.290       4.290       4.290       4.290       4.290    
        4.290       4.290       4.290       4.290       4.290    
   2    3.313       3.282       3.230       3.203       3.319       3.473       3.631       3.802       3.943       3.993    
        4.029       4.054       4.066       4.070       4.071    
   3    2.502       2.427       2.274       2.103       2.446       2.791       3.103       3.421       3.664       3.757    
        3.829       3.878       3.898       3.903       3.903    
   4    1.915       1.800       1.484      0.6208       1.720       2.295       2.730       3.150       3.465       3.595    
        3.705       3.784       3.799       3.793       3.786    
   5    1.610       1.541       1.403       1.266       1.675       2.111       2.539       2.996       3.349       3.509    
        3.667       3.810       3.776       3.738       3.719    
   6    1.552       1.530       1.505       1.545       1.786       2.117       2.502       2.948       3.307       3.484    
        3.700       4.070       3.814       3.723       3.690    
   7    1.704       1.708       1.733       1.815       1.997       2.260       2.590       2.993       3.324       3.479    
        3.634       3.777       3.744       3.706       3.687    
   8    2.041       2.056       2.095       2.178       2.322       2.527       2.794       3.130       3.409       3.531    
        3.639       3.718       3.734       3.729       3.723    
   9    2.544       2.560       2.597       2.664       2.770       2.919       3.113       3.359       3.568       3.654    
        3.725       3.776       3.800       3.807       3.808    
  10    3.191       3.203       3.229       3.274       3.341       3.431       3.545       3.682       3.794       3.841    
        3.882       3.913       3.932       3.940       3.944    
  11    3.948       3.954       3.966       3.987       4.015       4.049       4.084       4.103       4.073       4.077    
        4.090       4.105       4.117       4.124       4.127    
  12    4.443       4.445       4.450       4.457       4.464       4.470       4.468       4.448       4.366       4.336    
        4.332       4.337       4.342       4.346       4.348    
  13    4.614       4.615       4.617       4.620       4.624       4.626       4.624       4.617       4.605       4.594    
        4.591       4.592       4.594       4.596       4.597    
  14    4.789       4.789       4.790       4.791       4.791       4.792       4.792       4.794       4.805       4.806    
        4.807       4.807       4.809       4.810       4.810    
  15    4.967       4.966       4.965       4.964       4.963       4.962       4.963       4.965       4.968       4.970    
        4.972       4.973       4.974       4.974       4.974    
  16    4.843       4.837       4.825       4.808       4.792       4.785       4.797       4.819       4.842       4.862    
        4.878       4.890       4.898       4.904       4.906    
  17    4.729       4.717       4.692       4.656       4.616       4.591       4.625       4.675       4.723       4.762    
        4.792       4.814       4.830       4.839       4.844    
  18    4.633       4.614       4.575       4.513       4.428       4.345       4.441       4.540       4.618       4.676    
        4.720       4.751       4.773       4.786       4.793    
  19    4.564       4.539       4.488       4.400       4.248       3.923       4.263       4.432       4.539       4.614    
        4.668       4.706       4.732       4.748       4.756    
  20    4.527       4.501       4.447       4.361       4.247       4.141       4.263       4.396       4.502       4.582    
        4.641       4.682       4.711       4.729       4.737    

 HEAD WILL BE SAVED ON UNIT   51 AT END OF TIME STEP   43, STRESS PERIOD    2

 DRAWDOWN WILL BE SAVED ON UNIT   52 AT END OF TIME STEP   43, STRESS PERIOD    2
1
  VOLUMETRIC BUDGET FOR ENTIRE MODEL AT END OF TIME STEP   43, STRESS PERIOD   2
  ------------------------------------------------------------------------------

     CUMULATIVE VOLUMES      L**3       RATES FOR THIS TIME STEP      L**3/T
     ------------------                 ------------------------

           IN:                                      IN:
           ---                                      ---
             STORAGE =         683.3799               STORAGE =           0.0000
       CONSTANT HEAD =       32376.9590         CONSTANT HEAD =         673.5500
               WELLS =        9200.0000                 WELLS =         200.0000
       RIVER LEAKAGE =      167274.5625         RIVER LEAKAGE =        1201.8358

            TOTAL IN =      209534.9062              TOTAL IN =        2075.3857

          OUT:                                     OUT:
          ----                                     ----
             STORAGE =      184611.8438               STORAGE =        1525.3867
       CONSTANT HEAD =           0.0000         CONSTANT HEAD =           0.0000
               WELLS =       24250.0000                 WELLS =         550.0000
       RIVER LEAKAGE =         673.0626         RIVER LEAKAGE =           0.0000

           TOTAL OUT =      209534.9062             TOTAL OUT =        2075.3867

            IN - OUT =           0.0000              IN - OUT =      -9.7656E-04

 PERCENT DISCREPANCY =           0.00     PERCENT DISCREPANCY =          -0.00






         TIME SUMMARY AT END OF TIME STEP   43 IN STRESS PERIOD    2
                    SECONDS     MINUTES      HOURS       DAYS        YEARS
                    -----------------------------------------------------------
   TIME STEP LENGTH  86400.      1440.0      24.000      1.0000     2.73785E-03
 STRESS PERIOD TIME 3.71520E+06  61920.      1032.0      43.000     0.11773    
         TOTAL TIME 3.80160E+06  63360.      1056.0      44.000     0.12047    
1
 
 SOLVING FOR HEAD 

 OUTPUT CONTROL FOR STRESS PERIOD    2   TIME STEP   44
    SAVE HEAD FOR ALL LAYERS
    SAVE DRAWDOWN FOR ALL LAYERS
    SAVE BUDGET
    PRINT HEAD FOR ALL LAYERS
    PRINT BUDGET
 UBDSV1 SAVING "         STORAGE" ON UNIT   1 AT TIME STEP 44, STRESS PERIOD   2
 UBDSV2 SAVING "   CONSTANT HEAD" ON UNIT   1 AT TIME STEP 44, STRESS PERIOD   2
 UBDSV1 SAVING "FLOW RIGHT FACE " ON UNIT   1 AT TIME STEP 44, STRESS PERIOD   2
 UBDSV1 SAVING "FLOW FRONT FACE " ON UNIT   1 AT TIME STEP 44, STRESS PERIOD   2
1
              HEAD IN LAYER   1 AT END OF TIME STEP  44 IN STRESS PERIOD    2
  ---------------------------------------------------------------------------

            1           2           3           4           5           6           7           8           9          10
           11          12          13          14          15
 ........................................................................................................................
   1    4.320       4.320       4.320       4.320       4.320       4.320       4.320       4.320       4.320       4.320    
        4.320       4.320       4.320       4.320       4.320    
   2    3.345       3.314       3.262       3.236       3.351       3.505       3.663       3.834       3.975       4.025    
        4.061       4.086       4.098       4.102       4.103    
   3    2.535       2.461       2.308       2.138       2.480       2.825       3.138       3.455       3.698       3.791    
        3.863       3.912       3.932       3.937       3.937    
   4    1.951       1.836       1.521      0.6580       1.756       2.332       2.766       3.186       3.501       3.631    
        3.741       3.820       3.834       3.828       3.822    
   5    1.647       1.578       1.441       1.304       1.713       2.150       2.578       3.034       3.386       3.546    
        3.703       3.847       3.812       3.775       3.756    
   6    1.591       1.568       1.545       1.585       1.826       2.157       2.541       2.987       3.344       3.521    
        3.737       4.107       3.851       3.760       3.727    
   7    1.743       1.748       1.773       1.856       2.038       2.300       2.630       3.032       3.361       3.516    
        3.671       3.814       3.780       3.743       3.724    
   8    2.079       2.094       2.134       2.217       2.361       2.566       2.833       3.167       3.445       3.566    
        3.673       3.752       3.768       3.763       3.758    
   9    2.579       2.594       2.631       2.699       2.806       2.955       3.148       3.393       3.600       3.686    
        3.757       3.808       3.831       3.838       3.840    
  10    3.218       3.230       3.257       3.302       3.369       3.459       3.573       3.710       3.822       3.868    
        3.909       3.941       3.959       3.968       3.972    
  11    3.965       3.971       3.984       4.004       4.033       4.068       4.103       4.122       4.094       4.099    
        4.113       4.128       4.140       4.146       4.149    
  12    4.453       4.455       4.460       4.467       4.474       4.480       4.479       4.461       4.380       4.352    
        4.349       4.353       4.359       4.363       4.365    
  13    4.620       4.622       4.624       4.628       4.631       4.633       4.632       4.625       4.614       4.604    
        4.601       4.602       4.605       4.607       4.608    
  14    4.793       4.793       4.794       4.795       4.795       4.796       4.797       4.798       4.809       4.811    
        4.811       4.812       4.814       4.815       4.815    
  15    4.967       4.967       4.966       4.965       4.963       4.963       4.964       4.966       4.969       4.971    
        4.972       4.973       4.974       4.975       4.975    
  16    4.847       4.840       4.828       4.812       4.796       4.789       4.801       4.823       4.846       4.866    
        4.882       4.894       4.902       4.907       4.910    
  17    4.735       4.722       4.697       4.662       4.622       4.597       4.631       4.681       4.729       4.768    
        4.798       4.820       4.836       4.846       4.850    
  18    4.641       4.622       4.583       4.521       4.436       4.353       4.449       4.548       4.626       4.684    
        4.728       4.759       4.781       4.795       4.801    
  19    4.573       4.549       4.497       4.410       4.257       3.933       4.273       4.442       4.549       4.624    
        4.677       4.716       4.742       4.758       4.766    
  20    4.538       4.511       4.457       4.372       4.257       4.152       4.274       4.406       4.513       4.593    
        4.651       4.693       4.721       4.739       4.748    

 HEAD WILL BE SAVED ON UNIT   51 AT END OF TIME STEP   44, STRESS PERIOD    2

 DRAWDOWN WILL BE SAVED ON UNIT   52 AT END OF TIME STEP   44, STRESS PERIOD    2
1
  VOLUMETRIC BUDGET FOR ENTIRE MODEL AT END OF TIME STEP   44, STRESS PERIOD   2
  ------------------------------------------------------------------------------

     CUMULATIVE VOLUMES      L**3       RATES FOR THIS TIME STEP      L**3/T
     ------------------                 ------------------------

           IN:                                      IN:
           ---                                      ---
             STORAGE =         683.3799               STORAGE =           0.0000
       CONSTANT HEAD =       33047.5430         CONSTANT HEAD =         670.5847
               WELLS =        9400.0000                 WELLS =         200.0000
       RIVER LEAKAGE =      168449.5781         RIVER LEAKAGE =        1175.0129

            TOTAL IN =      211580.5000              TOTAL IN =        2045.5977

          OUT:                                     OUT:
          ----                                     ----
             STORAGE =      186107.4375               STORAGE =        1495.5991
       CONSTANT HEAD =           0.0000         CONSTANT HEAD =           0.0000
               WELLS =       24800.0000                 WELLS =         550.0000
       RIVER LEAKAGE =         673.0626         RIVER LEAKAGE =           0.0000

           TOTAL OUT =      211580.5000             TOTAL OUT =        2045.5991

            IN - OUT =           0.0000              IN - OUT =      -1.4648E-03

 PERCENT DISCREPANCY =           0.00     PERCENT DISCREPANCY =          -0.00






         TIME SUMMARY AT END OF TIME STEP   44 IN STRESS PERIOD    2
                    SECONDS     MINUTES      HOURS       DAYS        YEARS
                    -----------------------------------------------------------
   TIME STEP LENGTH  86400.      1440.0      24.000      1.0000     2.73785E-03
 STRESS PERIOD TIME 3.80160E+06  63360.      1056.0      44.000     0.12047    
         TOTAL TIME 3.88800E+06  64800.      1080.0      45.000     0.12320    
1
 
 SOLVING FOR HEAD 

 OUTPUT CONTROL FOR STRESS PERIOD    2   TIME STEP   45
    SAVE HEAD FOR ALL LAYERS
    SAVE DRAWDOWN FOR ALL LAYERS
    SAVE BUDGET
    PRINT HEAD FOR ALL LAYERS
    PRINT BUDGET
 UBDSV1 SAVING "         STORAGE" ON UNIT   1 AT TIME STEP 45, STRESS PERIOD   2
 UBDSV2 SAVING "   CONSTANT HEAD" ON UNIT   1 AT TIME STEP 45, STRESS PERIOD   2
 UBDSV1 SAVING "FLOW RIGHT FACE " ON UNIT   1 AT TIME STEP 45, STRESS PERIOD   2
 UBDSV1 SAVING "FLOW FRONT FACE " ON UNIT   1 AT TIME STEP 45, STRESS PERIOD   2
1
              HEAD IN LAYER   1 AT END OF TIME STEP  45 IN STRESS PERIOD    2
  ---------------------------------------------------------------------------

            1           2           3           4           5           6           7           8           9          10
           11          12          13          14          15
 ........................................................................................................................
   1    4.350       4.350       4.350       4.350       4.350       4.350       4.350       4.350       4.350       4.350    
        4.350       4.350       4.350       4.350       4.350    
   2    3.377       3.345       3.294       3.268       3.384       3.537       3.696       3.867       4.007       4.057    
        4.093       4.118       4.130       4.134       4.135    
   3    2.569       2.495       2.342       2.172       2.515       2.860       3.173       3.490       3.732       3.825    
        3.897       3.946       3.966       3.971       3.970    
   4    1.986       1.872       1.557      0.6951       1.793       2.369       2.803       3.223       3.537       3.667    
        3.776       3.855       3.870       3.863       3.857    
   5    1.684       1.615       1.479       1.343       1.752       2.188       2.616       3.072       3.423       3.583    
        3.740       3.883       3.849       3.811       3.792    
   6    1.629       1.607       1.584       1.624       1.865       2.197       2.581       3.026       3.382       3.558    
        3.773       4.143       3.887       3.796       3.764    
   7    1.782       1.787       1.812       1.895       2.078       2.340       2.669       3.071       3.398       3.552    
        3.707       3.849       3.815       3.778       3.759    
   8    2.117       2.132       2.172       2.255       2.399       2.605       2.871       3.204       3.480       3.601    
        3.707       3.786       3.802       3.797       3.792    
   9    2.612       2.628       2.665       2.733       2.840       2.989       3.183       3.426       3.632       3.717    
        3.788       3.839       3.862       3.869       3.871    
  10    3.245       3.257       3.283       3.329       3.396       3.487       3.601       3.737       3.849       3.895    
        3.936       3.968       3.986       3.995       3.999    
  11    3.981       3.988       4.001       4.021       4.050       4.085       4.121       4.142       4.115       4.120    
        4.135       4.150       4.162       4.169       4.172    
  12    4.462       4.465       4.469       4.476       4.484       4.490       4.490       4.472       4.394       4.368    
        4.365       4.370       4.375       4.380       4.382    
  13    4.627       4.628       4.631       4.634       4.638       4.641       4.640       4.633       4.623       4.614    
        4.611       4.612       4.615       4.617       4.618    
  14    4.796       4.797       4.797       4.798       4.799       4.800       4.801       4.803       4.814       4.815    
        4.816       4.817       4.818       4.819       4.820    
  15    4.968       4.968       4.967       4.965       4.964       4.963       4.964       4.967       4.970       4.971    
        4.973       4.974       4.975       4.976       4.976    
  16    4.850       4.843       4.831       4.815       4.799       4.792       4.804       4.826       4.849       4.869    
        4.885       4.897       4.905       4.911       4.913    
  17    4.740       4.728       4.703       4.667       4.627       4.603       4.637       4.687       4.735       4.774    
        4.804       4.826       4.842       4.851       4.856    
  18    4.648       4.629       4.590       4.528       4.444       4.360       4.457       4.555       4.633       4.692    
        4.736       4.767       4.789       4.802       4.809    
  19    4.582       4.557       4.506       4.418       4.266       3.942       4.282       4.451       4.558       4.633    
        4.686       4.725       4.751       4.767       4.775    
  20    4.547       4.521       4.466       4.381       4.267       4.161       4.283       4.416       4.522       4.602    
        4.661       4.703       4.731       4.749       4.758    

 HEAD WILL BE SAVED ON UNIT   51 AT END OF TIME STEP   45, STRESS PERIOD    2

 DRAWDOWN WILL BE SAVED ON UNIT   52 AT END OF TIME STEP   45, STRESS PERIOD    2
1
  VOLUMETRIC BUDGET FOR ENTIRE MODEL AT END OF TIME STEP   45, STRESS PERIOD   2
  ------------------------------------------------------------------------------

     CUMULATIVE VOLUMES      L**3       RATES FOR THIS TIME STEP      L**3/T
     ------------------                 ------------------------

           IN:                                      IN:
           ---                                      ---
             STORAGE =         683.3799               STORAGE =           0.0000
       CONSTANT HEAD =       33715.2734         CONSTANT HEAD =         667.7318
               WELLS =        9600.0000                 WELLS =         200.0000
       RIVER LEAKAGE =      169599.1094         RIVER LEAKAGE =        1149.5298

            TOTAL IN =      213597.7656              TOTAL IN =        2017.2616

          OUT:                                     OUT:
          ----                                     ----
             STORAGE =      187574.7031               STORAGE =        1467.2621
       CONSTANT HEAD =           0.0000         CONSTANT HEAD =           0.0000
               WELLS =       25350.0000                 WELLS =         550.0000
       RIVER LEAKAGE =         673.0626         RIVER LEAKAGE =           0.0000

           TOTAL OUT =      213597.7656             TOTAL OUT =        2017.2621

            IN - OUT =           0.0000              IN - OUT =      -4.8828E-04

 PERCENT DISCREPANCY =           0.00     PERCENT DISCREPANCY =          -0.00






         TIME SUMMARY AT END OF TIME STEP   45 IN STRESS PERIOD    2
                    SECONDS     MINUTES      HOURS       DAYS        YEARS
                    -----------------------------------------------------------
   TIME STEP LENGTH  86400.      1440.0      24.000      1.0000     2.73785E-03
 STRESS PERIOD TIME 3.88800E+06  64800.      1080.0      45.000     0.12320    
         TOTAL TIME 3.97440E+06  66240.      1104.0      46.000     0.12594    
1
 
 SOLVING FOR HEAD 

 OUTPUT CONTROL FOR STRESS PERIOD    2   TIME STEP   46
    SAVE HEAD FOR ALL LAYERS
    SAVE DRAWDOWN FOR ALL LAYERS
    SAVE BUDGET
    PRINT HEAD FOR ALL LAYERS
    PRINT BUDGET
 UBDSV1 SAVING "         STORAGE" ON UNIT   1 AT TIME STEP 46, STRESS PERIOD   2
 UBDSV2 SAVING "   CONSTANT HEAD" ON UNIT   1 AT TIME STEP 46, STRESS PERIOD   2
 UBDSV1 SAVING "FLOW RIGHT FACE " ON UNIT   1 AT TIME STEP 46, STRESS PERIOD   2
 UBDSV1 SAVING "FLOW FRONT FACE " ON UNIT   1 AT TIME STEP 46, STRESS PERIOD   2
1
              HEAD IN LAYER   1 AT END OF TIME STEP  46 IN STRESS PERIOD    2
  ---------------------------------------------------------------------------

            1           2           3           4           5           6           7           8           9          10
           11          12          13          14          15
 ........................................................................................................................
   1    4.380       4.380       4.380       4.380       4.380       4.380       4.380       4.380       4.380       4.380    
        4.380       4.380       4.380       4.380       4.380    
   2    3.409       3.377       3.326       3.300       3.416       3.570       3.728       3.899       4.039       4.089    
        4.125       4.150       4.162       4.166       4.167    
   3    2.603       2.528       2.376       2.207       2.549       2.894       3.207       3.524       3.766       3.859    
        3.931       3.980       4.000       4.004       4.004    
   4    2.022       1.907       1.593      0.7323       1.830       2.406       2.840       3.259       3.572       3.702    
        3.811       3.890       3.905       3.898       3.892    
   5    1.721       1.653       1.517       1.381       1.790       2.227       2.655       3.110       3.460       3.619    
        3.776       3.918       3.884       3.847       3.828    
   6    1.667       1.645       1.622       1.664       1.905       2.236       2.620       3.064       3.418       3.595    
        3.809       4.178       3.923       3.832       3.799    
   7    1.821       1.825       1.851       1.934       2.117       2.380       2.709       3.108       3.434       3.587    
        3.742       3.884       3.850       3.813       3.794    
   8    2.154       2.169       2.209       2.293       2.437       2.643       2.908       3.240       3.514       3.634    
        3.741       3.820       3.835       3.830       3.825    
   9    2.645       2.661       2.699       2.767       2.874       3.023       3.216       3.459       3.662       3.747    
        3.818       3.869       3.893       3.900       3.901    
  10    3.271       3.283       3.310       3.355       3.423       3.514       3.628       3.764       3.875       3.922    
        3.962       3.994       4.013       4.022       4.025    
  11    3.998       4.004       4.017       4.038       4.067       4.102       4.138       4.160       4.136       4.141    
        4.156       4.172       4.183       4.191       4.194    
  12    4.471       4.474       4.479       4.486       4.494       4.500       4.501       4.484       4.408       4.383    
        4.380       4.386       4.391       4.396       4.398    
  13    4.634       4.635       4.638       4.641       4.645       4.648       4.647       4.641       4.632       4.623    
        4.621       4.622       4.625       4.627       4.628    
  14    4.800       4.800       4.801       4.802       4.803       4.804       4.805       4.807       4.818       4.820    
        4.821       4.822       4.823       4.824       4.825    
  15    4.969       4.968       4.967       4.966       4.964       4.964       4.965       4.967       4.970       4.972    
        4.974       4.975       4.976       4.976       4.977    
  16    4.853       4.846       4.834       4.818       4.802       4.795       4.807       4.829       4.852       4.872    
        4.888       4.900       4.908       4.914       4.916    
  17    4.745       4.733       4.708       4.672       4.632       4.608       4.642       4.692       4.740       4.779    
        4.809       4.831       4.847       4.857       4.861    
  18    4.655       4.636       4.597       4.535       4.451       4.367       4.464       4.562       4.640       4.699    
        4.743       4.774       4.796       4.809       4.816    
  19    4.590       4.565       4.514       4.427       4.274       3.950       4.290       4.459       4.566       4.641    
        4.695       4.733       4.759       4.776       4.784    
  20    4.556       4.529       4.475       4.390       4.275       4.170       4.292       4.425       4.531       4.611    
        4.670       4.712       4.740       4.758       4.767    

 HEAD WILL BE SAVED ON UNIT   51 AT END OF TIME STEP   46, STRESS PERIOD    2

 DRAWDOWN WILL BE SAVED ON UNIT   52 AT END OF TIME STEP   46, STRESS PERIOD    2
1
  VOLUMETRIC BUDGET FOR ENTIRE MODEL AT END OF TIME STEP   46, STRESS PERIOD   2
  ------------------------------------------------------------------------------

     CUMULATIVE VOLUMES      L**3       RATES FOR THIS TIME STEP      L**3/T
     ------------------                 ------------------------

           IN:                                      IN:
           ---                                      ---
             STORAGE =         683.3799               STORAGE =           0.0000
       CONSTANT HEAD =       34380.2656         CONSTANT HEAD =         664.9919
               WELLS =        9800.0000                 WELLS =         200.0000
       RIVER LEAKAGE =      170724.4062         RIVER LEAKAGE =        1125.2908

            TOTAL IN =      215588.0469              TOTAL IN =        1990.2827

          OUT:                                     OUT:
          ----                                     ----
             STORAGE =      189014.9844               STORAGE =        1440.2825
       CONSTANT HEAD =           0.0000         CONSTANT HEAD =           0.0000
               WELLS =       25900.0000                 WELLS =         550.0000
       RIVER LEAKAGE =         673.0626         RIVER LEAKAGE =           0.0000

           TOTAL OUT =      215588.0469             TOTAL OUT =        1990.2825

            IN - OUT =           0.0000              IN - OUT =       2.4414E-04

 PERCENT DISCREPANCY =           0.00     PERCENT DISCREPANCY =           0.00






         TIME SUMMARY AT END OF TIME STEP   46 IN STRESS PERIOD    2
                    SECONDS     MINUTES      HOURS       DAYS        YEARS
                    -----------------------------------------------------------
   TIME STEP LENGTH  86400.      1440.0      24.000      1.0000     2.73785E-03
 STRESS PERIOD TIME 3.97440E+06  66240.      1104.0      46.000     0.12594    
         TOTAL TIME 4.06080E+06  67680.      1128.0      47.000     0.12868    
1
 
 SOLVING FOR HEAD 

 OUTPUT CONTROL FOR STRESS PERIOD    2   TIME STEP   47
    SAVE HEAD FOR ALL LAYERS
    SAVE DRAWDOWN FOR ALL LAYERS
    SAVE BUDGET
    PRINT HEAD FOR ALL LAYERS
    PRINT BUDGET
 UBDSV1 SAVING "         STORAGE" ON UNIT   1 AT TIME STEP 47, STRESS PERIOD   2
 UBDSV2 SAVING "   CONSTANT HEAD" ON UNIT   1 AT TIME STEP 47, STRESS PERIOD   2
 UBDSV1 SAVING "FLOW RIGHT FACE " ON UNIT   1 AT TIME STEP 47, STRESS PERIOD   2
 UBDSV1 SAVING "FLOW FRONT FACE " ON UNIT   1 AT TIME STEP 47, STRESS PERIOD   2
1
              HEAD IN LAYER   1 AT END OF TIME STEP  47 IN STRESS PERIOD    2
  ---------------------------------------------------------------------------

            1           2           3           4           5           6           7           8           9          10
           11          12          13          14          15
 ........................................................................................................................
   1    4.410       4.410       4.410       4.410       4.410       4.410       4.410       4.410       4.410       4.410    
        4.410       4.410       4.410       4.410       4.410    
   2    3.441       3.409       3.358       3.332       3.448       3.602       3.760       3.931       4.071       4.121    
        4.157       4.181       4.194       4.198       4.199    
   3    2.636       2.562       2.411       2.241       2.584       2.929       3.242       3.558       3.800       3.893    
        3.964       4.013       4.033       4.038       4.037    
   4    2.057       1.943       1.629      0.7694       1.867       2.442       2.876       3.295       3.608       3.737    
        3.846       3.925       3.939       3.933       3.927    
   5    1.758       1.690       1.554       1.419       1.828       2.265       2.693       3.147       3.496       3.655    
        3.811       3.954       3.920       3.882       3.863    
   6    1.706       1.684       1.661       1.703       1.944       2.275       2.659       3.102       3.455       3.630    
        3.845       4.213       3.958       3.867       3.835    
   7    1.859       1.864       1.890       1.973       2.156       2.419       2.747       3.146       3.469       3.622    
        3.776       3.919       3.885       3.848       3.829    
   8    2.190       2.205       2.246       2.330       2.475       2.680       2.945       3.275       3.547       3.667    
        3.773       3.852       3.868       3.863       3.857    
   9    2.677       2.694       2.731       2.800       2.907       3.056       3.249       3.490       3.693       3.777    
        3.848       3.899       3.922       3.930       3.931    
  10    3.296       3.308       3.335       3.381       3.449       3.540       3.654       3.790       3.900       3.947    
        3.988       4.020       4.039       4.048       4.051    
  11    4.013       4.020       4.033       4.054       4.083       4.119       4.156       4.178       4.155       4.161    
        4.177       4.193       4.205       4.212       4.215    
  12    4.480       4.483       4.488       4.495       4.503       4.510       4.511       4.495       4.422       4.397    
        4.396       4.401       4.407       4.411       4.414    
  13    4.640       4.641       4.644       4.648       4.652       4.654       4.654       4.649       4.640       4.632    
        4.630       4.632       4.634       4.637       4.638    
  14    4.803       4.804       4.805       4.806       4.807       4.808       4.809       4.811       4.822       4.824    
        4.825       4.826       4.828       4.829       4.829    
  15    4.969       4.969       4.968       4.966       4.965       4.965       4.966       4.968       4.971       4.973    
        4.974       4.976       4.976       4.977       4.977    
  16    4.855       4.849       4.837       4.821       4.804       4.797       4.810       4.832       4.855       4.875    
        4.891       4.903       4.911       4.917       4.919    
  17    4.750       4.737       4.713       4.677       4.637       4.613       4.646       4.697       4.745       4.784    
        4.814       4.836       4.852       4.862       4.866    
  18    4.661       4.642       4.603       4.541       4.457       4.374       4.470       4.569       4.647       4.706    
        4.749       4.781       4.802       4.816       4.823    
  19    4.597       4.573       4.522       4.434       4.282       3.958       4.297       4.467       4.574       4.649    
        4.702       4.741       4.767       4.783       4.791    
  20    4.564       4.537       4.483       4.398       4.283       4.178       4.301       4.433       4.540       4.620    
        4.678       4.720       4.749       4.767       4.775    

 HEAD WILL BE SAVED ON UNIT   51 AT END OF TIME STEP   47, STRESS PERIOD    2

 DRAWDOWN WILL BE SAVED ON UNIT   52 AT END OF TIME STEP   47, STRESS PERIOD    2
1
  VOLUMETRIC BUDGET FOR ENTIRE MODEL AT END OF TIME STEP   47, STRESS PERIOD   2
  ------------------------------------------------------------------------------

     CUMULATIVE VOLUMES      L**3       RATES FOR THIS TIME STEP      L**3/T
     ------------------                 ------------------------

           IN:                                      IN:
           ---                                      ---
             STORAGE =         683.3799               STORAGE =           0.0000
       CONSTANT HEAD =       35042.6328         CONSTANT HEAD =         662.3655
               WELLS =       10000.0000                 WELLS =         200.0000
       RIVER LEAKAGE =      171826.6094         RIVER LEAKAGE =        1102.2076

            TOTAL IN =      217552.6250              TOTAL IN =        1964.5731

          OUT:                                     OUT:
          ----                                     ----
             STORAGE =      190429.5625               STORAGE =        1414.5724
       CONSTANT HEAD =           0.0000         CONSTANT HEAD =           0.0000
               WELLS =       26450.0000                 WELLS =         550.0000
       RIVER LEAKAGE =         673.0626         RIVER LEAKAGE =           0.0000

           TOTAL OUT =      217552.6250             TOTAL OUT =        1964.5724

            IN - OUT =           0.0000              IN - OUT =       7.3242E-04

 PERCENT DISCREPANCY =           0.00     PERCENT DISCREPANCY =           0.00






         TIME SUMMARY AT END OF TIME STEP   47 IN STRESS PERIOD    2
                    SECONDS     MINUTES      HOURS       DAYS        YEARS
                    -----------------------------------------------------------
   TIME STEP LENGTH  86400.      1440.0      24.000      1.0000     2.73785E-03
 STRESS PERIOD TIME 4.06080E+06  67680.      1128.0      47.000     0.12868    
         TOTAL TIME 4.14720E+06  69120.      1152.0      48.000     0.13142    
1
 
 SOLVING FOR HEAD 

 OUTPUT CONTROL FOR STRESS PERIOD    2   TIME STEP   48
    SAVE HEAD FOR ALL LAYERS
    SAVE DRAWDOWN FOR ALL LAYERS
    SAVE BUDGET
    PRINT HEAD FOR ALL LAYERS
    PRINT BUDGET
 UBDSV1 SAVING "         STORAGE" ON UNIT   1 AT TIME STEP 48, STRESS PERIOD   2
 UBDSV2 SAVING "   CONSTANT HEAD" ON UNIT   1 AT TIME STEP 48, STRESS PERIOD   2
 UBDSV1 SAVING "FLOW RIGHT FACE " ON UNIT   1 AT TIME STEP 48, STRESS PERIOD   2
 UBDSV1 SAVING "FLOW FRONT FACE " ON UNIT   1 AT TIME STEP 48, STRESS PERIOD   2
1
              HEAD IN LAYER   1 AT END OF TIME STEP  48 IN STRESS PERIOD    2
  ---------------------------------------------------------------------------

            1           2           3           4           5           6           7           8           9          10
           11          12          13          14          15
 ........................................................................................................................
   1    4.440       4.440       4.440       4.440       4.440       4.440       4.440       4.440       4.440       4.440    
        4.440       4.440       4.440       4.440       4.440    
   2    3.472       3.441       3.390       3.364       3.480       3.634       3.793       3.963       4.103       4.153    
        4.189       4.213       4.225       4.230       4.231    
   3    2.670       2.596       2.445       2.276       2.618       2.963       3.276       3.592       3.833       3.926    
        3.998       4.046       4.066       4.071       4.071    
   4    2.093       1.979       1.665      0.8065       1.903       2.479       2.912       3.331       3.643       3.771    
        3.880       3.959       3.974       3.967       3.961    
   5    1.795       1.727       1.592       1.457       1.867       2.303       2.730       3.184       3.532       3.690    
        3.846       3.989       3.954       3.917       3.898    
   6    1.744       1.722       1.700       1.742       1.983       2.314       2.698       3.139       3.490       3.666    
        3.880       4.248       3.992       3.902       3.869    
   7    1.897       1.902       1.928       2.012       2.195       2.457       2.785       3.182       3.504       3.657    
        3.811       3.953       3.919       3.881       3.863    
   8    2.226       2.241       2.282       2.367       2.511       2.717       2.981       3.310       3.580       3.700    
        3.806       3.884       3.900       3.895       3.889    
   9    2.709       2.725       2.763       2.832       2.939       3.088       3.281       3.521       3.722       3.807    
        3.877       3.928       3.952       3.959       3.960    
  10    3.321       3.333       3.360       3.406       3.475       3.566       3.680       3.815       3.925       3.972    
        4.013       4.045       4.064       4.073       4.077    
  11    4.029       4.035       4.048       4.070       4.099       4.135       4.172       4.196       4.175       4.181    
        4.197       4.213       4.225       4.232       4.236    
  12    4.489       4.491       4.496       4.504       4.512       4.519       4.521       4.506       4.435       4.411    
        4.410       4.416       4.422       4.427       4.429    
  13    4.646       4.647       4.650       4.654       4.658       4.661       4.661       4.656       4.648       4.640    
        4.639       4.641       4.644       4.646       4.647    
  14    4.807       4.807       4.808       4.809       4.810       4.812       4.813       4.815       4.826       4.828    
        4.829       4.831       4.832       4.833       4.834    
  15    4.970       4.969       4.968       4.967       4.966       4.965       4.966       4.968       4.971       4.973    
        4.975       4.976       4.977       4.978       4.978    
  16    4.858       4.852       4.839       4.823       4.807       4.800       4.812       4.834       4.858       4.878    
        4.894       4.905       4.914       4.919       4.922    
  17    4.754       4.742       4.717       4.681       4.641       4.617       4.651       4.701       4.749       4.788    
        4.818       4.841       4.856       4.866       4.871    
  18    4.667       4.648       4.609       4.547       4.463       4.379       4.476       4.575       4.653       4.712    
        4.755       4.787       4.808       4.822       4.829    
  19    4.604       4.580       4.529       4.441       4.289       3.965       4.304       4.474       4.581       4.656    
        4.710       4.748       4.774       4.791       4.799    
  20    4.571       4.545       4.491       4.405       4.291       4.186       4.308       4.441       4.547       4.627    
        4.686       4.728       4.756       4.774       4.783    

 HEAD WILL BE SAVED ON UNIT   51 AT END OF TIME STEP   48, STRESS PERIOD    2

 DRAWDOWN WILL BE SAVED ON UNIT   52 AT END OF TIME STEP   48, STRESS PERIOD    2
1
  VOLUMETRIC BUDGET FOR ENTIRE MODEL AT END OF TIME STEP   48, STRESS PERIOD   2
  ------------------------------------------------------------------------------

     CUMULATIVE VOLUMES      L**3       RATES FOR THIS TIME STEP      L**3/T
     ------------------                 ------------------------

           IN:                                      IN:
           ---                                      ---
             STORAGE =         683.3799               STORAGE =           0.0000
       CONSTANT HEAD =       35702.4883         CONSTANT HEAD =         659.8543
               WELLS =       10200.0000                 WELLS =         200.0000
       RIVER LEAKAGE =      172906.8125         RIVER LEAKAGE =        1080.1987

            TOTAL IN =      219492.6875              TOTAL IN =        1940.0530

          OUT:                                     OUT:
          ----                                     ----
             STORAGE =      191819.6094               STORAGE =        1390.0546
       CONSTANT HEAD =           0.0000         CONSTANT HEAD =           0.0000
               WELLS =       27000.0000                 WELLS =         550.0000
       RIVER LEAKAGE =         673.0626         RIVER LEAKAGE =           0.0000

           TOTAL OUT =      219492.6719             TOTAL OUT =        1940.0546

            IN - OUT =       1.5625E-02              IN - OUT =      -1.5869E-03

 PERCENT DISCREPANCY =           0.00     PERCENT DISCREPANCY =          -0.00






         TIME SUMMARY AT END OF TIME STEP   48 IN STRESS PERIOD    2
                    SECONDS     MINUTES      HOURS       DAYS        YEARS
                    -----------------------------------------------------------
   TIME STEP LENGTH  86400.      1440.0      24.000      1.0000     2.73785E-03
 STRESS PERIOD TIME 4.14720E+06  69120.      1152.0      48.000     0.13142    
         TOTAL TIME 4.23360E+06  70560.      1176.0      49.000     0.13415    
1
 
 SOLVING FOR HEAD 

 OUTPUT CONTROL FOR STRESS PERIOD    2   TIME STEP   49
    SAVE HEAD FOR ALL LAYERS
    SAVE DRAWDOWN FOR ALL LAYERS
    SAVE BUDGET
    PRINT HEAD FOR ALL LAYERS
    PRINT BUDGET
 UBDSV1 SAVING "         STORAGE" ON UNIT   1 AT TIME STEP 49, STRESS PERIOD   2
 UBDSV2 SAVING "   CONSTANT HEAD" ON UNIT   1 AT TIME STEP 49, STRESS PERIOD   2
 UBDSV1 SAVING "FLOW RIGHT FACE " ON UNIT   1 AT TIME STEP 49, STRESS PERIOD   2
 UBDSV1 SAVING "FLOW FRONT FACE " ON UNIT   1 AT TIME STEP 49, STRESS PERIOD   2
1
              HEAD IN LAYER   1 AT END OF TIME STEP  49 IN STRESS PERIOD    2
  ---------------------------------------------------------------------------

            1           2           3           4           5           6           7           8           9          10
           11          12          13          14          15
 ........................................................................................................................
   1    4.470       4.470       4.470       4.470       4.470       4.470       4.470       4.470       4.470       4.470    
        4.470       4.470       4.470       4.470       4.470    
   2    3.504       3.473       3.422       3.396       3.513       3.666       3.825       3.995       4.135       4.184    
        4.221       4.245       4.257       4.261       4.262    
   3    2.704       2.630       2.479       2.310       2.653       2.998       3.310       3.626       3.867       3.959    
        4.031       4.079       4.099       4.104       4.103    
   4    2.128       2.014       1.701      0.8436       1.940       2.515       2.949       3.366       3.677       3.806    
        3.915       3.993       4.007       4.001       3.995    
   5    1.832       1.764       1.629       1.495       1.905       2.341       2.768       3.220       3.567       3.725    
        3.881       4.023       3.989       3.951       3.932    
   6    1.781       1.760       1.738       1.780       2.022       2.353       2.736       3.176       3.526       3.701    
        3.914       4.282       4.027       3.936       3.904    
   7    1.934       1.939       1.966       2.050       2.234       2.496       2.823       3.219       3.539       3.691    
        3.844       3.986       3.952       3.915       3.896    
   8    2.262       2.277       2.318       2.403       2.548       2.753       3.017       3.344       3.613       3.732    
        3.837       3.916       3.931       3.926       3.921    
   9    2.740       2.757       2.795       2.864       2.971       3.120       3.312       3.552       3.751       3.835    
        3.906       3.957       3.980       3.987       3.989    
  10    3.345       3.358       3.385       3.431       3.500       3.591       3.705       3.840       3.950       3.997    
        4.038       4.070       4.089       4.098       4.102    
  11    4.044       4.050       4.064       4.085       4.115       4.151       4.189       4.213       4.193       4.201    
        4.217       4.233       4.245       4.253       4.256    
  12    4.497       4.499       4.505       4.512       4.521       4.529       4.530       4.516       4.447       4.425    
        4.425       4.431       4.437       4.442       4.444    
  13    4.652       4.653       4.656       4.660       4.664       4.668       4.668       4.664       4.656       4.649    
        4.648       4.650       4.653       4.655       4.656    
  14    4.810       4.810       4.811       4.812       4.814       4.815       4.817       4.819       4.830       4.832    
        4.833       4.835       4.836       4.837       4.838    
  15    4.970       4.970       4.969       4.967       4.966       4.966       4.967       4.969       4.972       4.974    
        4.976       4.977       4.978       4.978       4.979    
  16    4.860       4.854       4.842       4.826       4.809       4.802       4.815       4.837       4.860       4.880    
        4.896       4.908       4.916       4.922       4.924    
  17    4.758       4.746       4.721       4.685       4.645       4.621       4.655       4.705       4.753       4.792    
        4.823       4.845       4.860       4.870       4.875    
  18    4.672       4.653       4.614       4.553       4.468       4.385       4.482       4.580       4.658       4.717    
        4.761       4.792       4.814       4.828       4.834    
  19    4.610       4.586       4.535       4.447       4.295       3.971       4.311       4.480       4.587       4.662    
        4.716       4.755       4.781       4.797       4.805    
  20    4.578       4.552       4.498       4.412       4.298       4.193       4.315       4.448       4.554       4.634    
        4.693       4.735       4.764       4.781       4.790    

 HEAD WILL BE SAVED ON UNIT   51 AT END OF TIME STEP   49, STRESS PERIOD    2

 DRAWDOWN WILL BE SAVED ON UNIT   52 AT END OF TIME STEP   49, STRESS PERIOD    2
1
  VOLUMETRIC BUDGET FOR ENTIRE MODEL AT END OF TIME STEP   49, STRESS PERIOD   2
  ------------------------------------------------------------------------------

     CUMULATIVE VOLUMES      L**3       RATES FOR THIS TIME STEP      L**3/T
     ------------------                 ------------------------

           IN:                                      IN:
           ---                                      ---
             STORAGE =         683.3799               STORAGE =           0.0000
       CONSTANT HEAD =       36359.9453         CONSTANT HEAD =         657.4579
               WELLS =       10400.0000                 WELLS =         200.0000
       RIVER LEAKAGE =      173966.0000         RIVER LEAKAGE =        1059.1951

            TOTAL IN =      221409.3281              TOTAL IN =        1916.6531

          OUT:                                     OUT:
          ----                                     ----
             STORAGE =      193186.2656               STORAGE =        1366.6531
       CONSTANT HEAD =           0.0000         CONSTANT HEAD =           0.0000
               WELLS =       27550.0000                 WELLS =         550.0000
       RIVER LEAKAGE =         673.0626         RIVER LEAKAGE =           0.0000

           TOTAL OUT =      221409.3281             TOTAL OUT =        1916.6531

            IN - OUT =           0.0000              IN - OUT =           0.0000

 PERCENT DISCREPANCY =           0.00     PERCENT DISCREPANCY =           0.00






         TIME SUMMARY AT END OF TIME STEP   49 IN STRESS PERIOD    2
                    SECONDS     MINUTES      HOURS       DAYS        YEARS
                    -----------------------------------------------------------
   TIME STEP LENGTH  86400.      1440.0      24.000      1.0000     2.73785E-03
 STRESS PERIOD TIME 4.23360E+06  70560.      1176.0      49.000     0.13415    
         TOTAL TIME 4.32000E+06  72000.      1200.0      50.000     0.13689    
1
 
 SOLVING FOR HEAD 

 OUTPUT CONTROL FOR STRESS PERIOD    2   TIME STEP   50
    SAVE HEAD FOR ALL LAYERS
    SAVE DRAWDOWN FOR ALL LAYERS
    SAVE BUDGET
    PRINT HEAD FOR ALL LAYERS
    PRINT BUDGET
 UBDSV1 SAVING "         STORAGE" ON UNIT   1 AT TIME STEP 50, STRESS PERIOD   2
 UBDSV2 SAVING "   CONSTANT HEAD" ON UNIT   1 AT TIME STEP 50, STRESS PERIOD   2
 UBDSV1 SAVING "FLOW RIGHT FACE " ON UNIT   1 AT TIME STEP 50, STRESS PERIOD   2
 UBDSV1 SAVING "FLOW FRONT FACE " ON UNIT   1 AT TIME STEP 50, STRESS PERIOD   2
1
              HEAD IN LAYER   1 AT END OF TIME STEP  50 IN STRESS PERIOD    2
  ---------------------------------------------------------------------------

            1           2           3           4           5           6           7           8           9          10
           11          12          13          14          15
 ........................................................................................................................
   1    4.500       4.500       4.500       4.500       4.500       4.500       4.500       4.500       4.500       4.500    
        4.500       4.500       4.500       4.500       4.500    
   2    3.536       3.505       3.454       3.429       3.545       3.699       3.857       4.027       4.166       4.216    
        4.252       4.276       4.288       4.293       4.294    
   3    2.738       2.664       2.513       2.345       2.687       3.032       3.345       3.660       3.900       3.992    
        4.064       4.112       4.132       4.136       4.136    
   4    2.164       2.050       1.737      0.8806       1.976       2.552       2.985       3.401       3.712       3.840    
        3.948       4.027       4.041       4.035       4.029    
   5    1.869       1.801       1.667       1.533       1.942       2.379       2.805       3.257       3.602       3.760    
        3.915       4.057       4.023       3.985       3.966    
   6    1.819       1.798       1.776       1.819       2.060       2.391       2.773       3.213       3.561       3.735    
        3.948       4.316       4.060       3.970       3.937    
   7    1.972       1.977       2.004       2.088       2.272       2.534       2.860       3.254       3.573       3.724    
        3.877       4.019       3.985       3.947       3.929    
   8    2.297       2.312       2.354       2.438       2.584       2.789       3.052       3.378       3.645       3.763    
        3.868       3.947       3.962       3.957       3.952    
   9    2.771       2.788       2.826       2.895       3.003       3.152       3.343       3.582       3.780       3.864    
        3.934       3.985       4.008       4.015       4.017    
  10    3.369       3.382       3.409       3.455       3.524       3.616       3.729       3.865       3.974       4.021    
        4.062       4.094       4.113       4.122       4.126    
  11    4.058       4.065       4.078       4.100       4.130       4.167       4.205       4.230       4.212       4.220    
        4.236       4.253       4.265       4.272       4.276    
  12    4.505       4.508       4.513       4.520       4.529       4.537       4.540       4.527       4.460       4.439    
        4.439       4.445       4.452       4.456       4.459    
  13    4.657       4.659       4.662       4.666       4.670       4.674       4.675       4.671       4.664       4.657    
        4.656       4.659       4.662       4.664       4.665    
  14    4.813       4.814       4.814       4.816       4.817       4.819       4.820       4.823       4.834       4.836    
        4.837       4.839       4.840       4.842       4.842    
  15    4.971       4.970       4.969       4.968       4.967       4.966       4.967       4.970       4.972       4.975    
        4.976       4.977       4.978       4.979       4.979    
  16    4.862       4.856       4.844       4.828       4.812       4.805       4.817       4.839       4.862       4.882    
        4.898       4.910       4.919       4.924       4.927    
  17    4.762       4.749       4.725       4.689       4.649       4.625       4.659       4.709       4.757       4.796    
        4.826       4.849       4.864       4.874       4.879    
  18    4.677       4.658       4.619       4.558       4.473       4.390       4.487       4.585       4.663       4.722    
        4.766       4.798       4.819       4.833       4.839    
  19    4.616       4.592       4.541       4.453       4.301       3.977       4.317       4.486       4.593       4.668    
        4.722       4.761       4.787       4.803       4.811    
  20    4.584       4.558       4.504       4.419       4.305       4.199       4.322       4.454       4.561       4.641    
        4.700       4.741       4.770       4.788       4.797    

 HEAD WILL BE SAVED ON UNIT   51 AT END OF TIME STEP   50, STRESS PERIOD    2

 DRAWDOWN WILL BE SAVED ON UNIT   52 AT END OF TIME STEP   50, STRESS PERIOD    2
1
  VOLUMETRIC BUDGET FOR ENTIRE MODEL AT END OF TIME STEP   50, STRESS PERIOD   2
  ------------------------------------------------------------------------------

     CUMULATIVE VOLUMES      L**3       RATES FOR THIS TIME STEP      L**3/T
     ------------------                 ------------------------

           IN:                                      IN:
           ---                                      ---
             STORAGE =         683.3799               STORAGE =           0.0000
       CONSTANT HEAD =       37015.1211         CONSTANT HEAD =         655.1761
               WELLS =       10600.0000                 WELLS =         200.0000
       RIVER LEAKAGE =      175005.1250         RIVER LEAKAGE =        1039.1219

            TOTAL IN =      223303.6250              TOTAL IN =        1894.2981

          OUT:                                     OUT:
          ----                                     ----
             STORAGE =      194530.5625               STORAGE =        1344.2990
       CONSTANT HEAD =           0.0000         CONSTANT HEAD =           0.0000
               WELLS =       28100.0000                 WELLS =         550.0000
       RIVER LEAKAGE =         673.0626         RIVER LEAKAGE =           0.0000

           TOTAL OUT =      223303.6250             TOTAL OUT =        1894.2990

            IN - OUT =           0.0000              IN - OUT =      -8.5449E-04

 PERCENT DISCREPANCY =           0.00     PERCENT DISCREPANCY =          -0.00






         TIME SUMMARY AT END OF TIME STEP   50 IN STRESS PERIOD    2
                    SECONDS     MINUTES      HOURS       DAYS        YEARS
                    -----------------------------------------------------------
   TIME STEP LENGTH  86400.      1440.0      24.000      1.0000     2.73785E-03
 STRESS PERIOD TIME 4.32000E+06  72000.      1200.0      50.000     0.13689    
         TOTAL TIME 4.40640E+06  73440.      1224.0      51.000     0.13963    
1
 
 SOLVING FOR HEAD 

 OUTPUT CONTROL FOR STRESS PERIOD    2   TIME STEP   51
    SAVE HEAD FOR ALL LAYERS
    SAVE DRAWDOWN FOR ALL LAYERS
    SAVE BUDGET
    PRINT HEAD FOR ALL LAYERS
    PRINT BUDGET
 UBDSV1 SAVING "         STORAGE" ON UNIT   1 AT TIME STEP 51, STRESS PERIOD   2
 UBDSV2 SAVING "   CONSTANT HEAD" ON UNIT   1 AT TIME STEP 51, STRESS PERIOD   2
 UBDSV1 SAVING "FLOW RIGHT FACE " ON UNIT   1 AT TIME STEP 51, STRESS PERIOD   2
 UBDSV1 SAVING "FLOW FRONT FACE " ON UNIT   1 AT TIME STEP 51, STRESS PERIOD   2
1
              HEAD IN LAYER   1 AT END OF TIME STEP  51 IN STRESS PERIOD    2
  ---------------------------------------------------------------------------

            1           2           3           4           5           6           7           8           9          10
           11          12          13          14          15
 ........................................................................................................................
   1    4.530       4.530       4.530       4.530       4.530       4.530       4.530       4.530       4.530       4.530    
        4.530       4.530       4.530       4.530       4.530    
   2    3.568       3.537       3.486       3.461       3.577       3.731       3.889       4.059       4.198       4.247    
        4.284       4.308       4.320       4.324       4.325    
   3    2.771       2.698       2.547       2.379       2.722       3.066       3.379       3.693       3.933       4.025    
        4.096       4.145       4.165       4.169       4.169    
   4    2.199       2.086       1.774      0.9175       2.013       2.588       3.020       3.437       3.746       3.874    
        3.982       4.060       4.075       4.068       4.062    
   5    1.906       1.838       1.704       1.571       1.980       2.416       2.842       3.293       3.637       3.794    
        3.949       4.091       4.057       4.019       4.000    
   6    1.856       1.835       1.814       1.857       2.099       2.429       2.811       3.249       3.595       3.769    
        3.982       4.349       4.094       4.003       3.971    
   7    2.008       2.014       2.041       2.126       2.309       2.571       2.897       3.290       3.606       3.757    
        3.910       4.051       4.017       3.980       3.961    
   8    2.331       2.347       2.389       2.474       2.619       2.824       3.086       3.411       3.676       3.794    
        3.899       3.977       3.993       3.988       3.982    
   9    2.801       2.818       2.856       2.926       3.034       3.182       3.374       3.611       3.808       3.891    
        3.961       4.012       4.036       4.043       4.044    
  10    3.392       3.405       3.433       3.479       3.548       3.640       3.753       3.889       3.997       4.044    
        4.086       4.118       4.137       4.146       4.150    
  11    4.072       4.079       4.093       4.115       4.145       4.182       4.220       4.247       4.230       4.238    
        4.255       4.272       4.284       4.292       4.295    
  12    4.513       4.515       4.521       4.529       4.538       4.546       4.549       4.537       4.472       4.452    
        4.453       4.459       4.466       4.471       4.473    
  13    4.663       4.664       4.667       4.672       4.676       4.680       4.681       4.678       4.671       4.665    
        4.665       4.667       4.670       4.673       4.674    
  14    4.816       4.817       4.817       4.819       4.820       4.822       4.824       4.826       4.837       4.840    
        4.841       4.843       4.845       4.846       4.846    
  15    4.971       4.971       4.970       4.968       4.967       4.967       4.968       4.970       4.973       4.975    
        4.977       4.978       4.979       4.979       4.980    
  16    4.864       4.858       4.846       4.830       4.814       4.807       4.819       4.841       4.864       4.884    
        4.900       4.912       4.921       4.926       4.929    
  17    4.765       4.753       4.728       4.692       4.653       4.628       4.662       4.713       4.761       4.800    
        4.830       4.852       4.868       4.878       4.883    
  18    4.682       4.663       4.624       4.562       4.478       4.395       4.492       4.590       4.668       4.727    
        4.771       4.802       4.824       4.838       4.844    
  19    4.622       4.598       4.546       4.459       4.307       3.983       4.323       4.492       4.599       4.674    
        4.728       4.766       4.793       4.809       4.817    
  20    4.590       4.564       4.510       4.425       4.311       4.205       4.328       4.461       4.567       4.647    
        4.706       4.748       4.776       4.794       4.803    

 HEAD WILL BE SAVED ON UNIT   51 AT END OF TIME STEP   51, STRESS PERIOD    2

 DRAWDOWN WILL BE SAVED ON UNIT   52 AT END OF TIME STEP   51, STRESS PERIOD    2
1
  VOLUMETRIC BUDGET FOR ENTIRE MODEL AT END OF TIME STEP   51, STRESS PERIOD   2
  ------------------------------------------------------------------------------

     CUMULATIVE VOLUMES      L**3       RATES FOR THIS TIME STEP      L**3/T
     ------------------                 ------------------------

           IN:                                      IN:
           ---                                      ---
             STORAGE =         683.3799               STORAGE =           0.0000
       CONSTANT HEAD =       37668.1289         CONSTANT HEAD =         653.0091
               WELLS =       10800.0000                 WELLS =         200.0000
       RIVER LEAKAGE =      176025.0469         RIVER LEAKAGE =        1019.9206

            TOTAL IN =      225176.5625              TOTAL IN =        1872.9297

          OUT:                                     OUT:
          ----                                     ----
             STORAGE =      195853.4844               STORAGE =        1322.9294
       CONSTANT HEAD =           0.0000         CONSTANT HEAD =           0.0000
               WELLS =       28650.0000                 WELLS =         550.0000
       RIVER LEAKAGE =         673.0626         RIVER LEAKAGE =           0.0000

           TOTAL OUT =      225176.5469             TOTAL OUT =        1872.9294

            IN - OUT =       1.5625E-02              IN - OUT =       2.4414E-04

 PERCENT DISCREPANCY =           0.00     PERCENT DISCREPANCY =           0.00






         TIME SUMMARY AT END OF TIME STEP   51 IN STRESS PERIOD    2
                    SECONDS     MINUTES      HOURS       DAYS        YEARS
                    -----------------------------------------------------------
   TIME STEP LENGTH  86400.      1440.0      24.000      1.0000     2.73785E-03
 STRESS PERIOD TIME 4.40640E+06  73440.      1224.0      51.000     0.13963    
         TOTAL TIME 4.49280E+06  74880.      1248.0      52.000     0.14237    
1
 
 SOLVING FOR HEAD 

 OUTPUT CONTROL FOR STRESS PERIOD    2   TIME STEP   52
    SAVE HEAD FOR ALL LAYERS
    SAVE DRAWDOWN FOR ALL LAYERS
    SAVE BUDGET
    PRINT HEAD FOR ALL LAYERS
    PRINT BUDGET
 UBDSV1 SAVING "         STORAGE" ON UNIT   1 AT TIME STEP 52, STRESS PERIOD   2
 UBDSV2 SAVING "   CONSTANT HEAD" ON UNIT   1 AT TIME STEP 52, STRESS PERIOD   2
 UBDSV1 SAVING "FLOW RIGHT FACE " ON UNIT   1 AT TIME STEP 52, STRESS PERIOD   2
 UBDSV1 SAVING "FLOW FRONT FACE " ON UNIT   1 AT TIME STEP 52, STRESS PERIOD   2
1
              HEAD IN LAYER   1 AT END OF TIME STEP  52 IN STRESS PERIOD    2
  ---------------------------------------------------------------------------

            1           2           3           4           5           6           7           8           9          10
           11          12          13          14          15
 ........................................................................................................................
   1    4.560       4.560       4.560       4.560       4.560       4.560       4.560       4.560       4.560       4.560    
        4.560       4.560       4.560       4.560       4.560    
   2    3.600       3.569       3.518       3.493       3.609       3.763       3.921       4.091       4.230       4.279    
        4.315       4.339       4.351       4.355       4.356    
   3    2.805       2.732       2.581       2.413       2.756       3.101       3.413       3.727       3.966       4.058    
        4.129       4.177       4.197       4.201       4.201    
   4    2.234       2.121       1.810      0.9544       2.049       2.624       3.056       3.471       3.780       3.907    
        4.015       4.093       4.108       4.101       4.095    
   5    1.943       1.875       1.741       1.608       2.018       2.453       2.879       3.328       3.671       3.828    
        3.983       4.124       4.090       4.052       4.033    
   6    1.894       1.873       1.851       1.895       2.136       2.467       2.848       3.284       3.630       3.803    
        4.015       4.382       4.127       4.036       4.004    
   7    2.045       2.051       2.078       2.163       2.346       2.608       2.933       3.324       3.639       3.790    
        3.942       4.083       4.049       4.011       3.993    
   8    2.366       2.382       2.423       2.508       2.654       2.858       3.120       3.443       3.707       3.824    
        3.929       4.007       4.022       4.017       4.012    
   9    2.831       2.848       2.886       2.956       3.064       3.213       3.403       3.640       3.835       3.918    
        3.988       4.039       4.063       4.070       4.071    
  10    3.415       3.428       3.456       3.502       3.571       3.663       3.777       3.912       4.020       4.067    
        4.109       4.141       4.160       4.169       4.173    
  11    4.086       4.093       4.107       4.129       4.159       4.197       4.235       4.263       4.247       4.257    
        4.274       4.291       4.303       4.311       4.314    
  12    4.520       4.523       4.529       4.536       4.546       4.554       4.558       4.546       4.484       4.465    
        4.466       4.473       4.480       4.484       4.487    
  13    4.668       4.670       4.673       4.677       4.682       4.686       4.687       4.684       4.678       4.673    
        4.673       4.675       4.679       4.681       4.683    
  14    4.819       4.820       4.821       4.822       4.824       4.825       4.827       4.830       4.841       4.843    
        4.845       4.847       4.848       4.850       4.850    
  15    4.972       4.971       4.970       4.969       4.968       4.967       4.968       4.971       4.974       4.976    
        4.977       4.978       4.979       4.980       4.980    
  16    4.866       4.860       4.848       4.832       4.816       4.809       4.821       4.843       4.866       4.886    
        4.902       4.914       4.923       4.928       4.931    
  17    4.769       4.756       4.731       4.696       4.656       4.632       4.666       4.716       4.764       4.803    
        4.833       4.856       4.871       4.881       4.886    
  18    4.686       4.667       4.628       4.567       4.483       4.399       4.496       4.595       4.673       4.732    
        4.775       4.807       4.829       4.842       4.849    
  19    4.627       4.603       4.551       4.464       4.312       3.988       4.328       4.497       4.604       4.679    
        4.733       4.772       4.798       4.814       4.822    
  20    4.596       4.570       4.515       4.430       4.316       4.211       4.333       4.466       4.573       4.653    
        4.711       4.753       4.782       4.800       4.809    

 HEAD WILL BE SAVED ON UNIT   51 AT END OF TIME STEP   52, STRESS PERIOD    2

 DRAWDOWN WILL BE SAVED ON UNIT   52 AT END OF TIME STEP   52, STRESS PERIOD    2
1
  VOLUMETRIC BUDGET FOR ENTIRE MODEL AT END OF TIME STEP   52, STRESS PERIOD   2
  ------------------------------------------------------------------------------

     CUMULATIVE VOLUMES      L**3       RATES FOR THIS TIME STEP      L**3/T
     ------------------                 ------------------------

           IN:                                      IN:
           ---                                      ---
             STORAGE =         683.3799               STORAGE =           0.0000
       CONSTANT HEAD =       38319.0859         CONSTANT HEAD =         650.9573
               WELLS =       11000.0000                 WELLS =         200.0000
       RIVER LEAKAGE =      177026.5781         RIVER LEAKAGE =        1001.5297

            TOTAL IN =      227029.0469              TOTAL IN =        1852.4871

          OUT:                                     OUT:
          ----                                     ----
             STORAGE =      197155.9688               STORAGE =        1302.4873
       CONSTANT HEAD =           0.0000         CONSTANT HEAD =           0.0000
               WELLS =       29200.0000                 WELLS =         550.0000
       RIVER LEAKAGE =         673.0626         RIVER LEAKAGE =           0.0000

           TOTAL OUT =      227029.0312             TOTAL OUT =        1852.4873

            IN - OUT =       1.5625E-02              IN - OUT =      -2.4414E-04

 PERCENT DISCREPANCY =           0.00     PERCENT DISCREPANCY =          -0.00






         TIME SUMMARY AT END OF TIME STEP   52 IN STRESS PERIOD    2
                    SECONDS     MINUTES      HOURS       DAYS        YEARS
                    -----------------------------------------------------------
   TIME STEP LENGTH  86400.      1440.0      24.000      1.0000     2.73785E-03
 STRESS PERIOD TIME 4.49280E+06  74880.      1248.0      52.000     0.14237    
         TOTAL TIME 4.57920E+06  76320.      1272.0      53.000     0.14511    
1
 
 SOLVING FOR HEAD 

 OUTPUT CONTROL FOR STRESS PERIOD    2   TIME STEP   53
    SAVE HEAD FOR ALL LAYERS
    SAVE DRAWDOWN FOR ALL LAYERS
    SAVE BUDGET
    PRINT HEAD FOR ALL LAYERS
    PRINT BUDGET
 UBDSV1 SAVING "         STORAGE" ON UNIT   1 AT TIME STEP 53, STRESS PERIOD   2
 UBDSV2 SAVING "   CONSTANT HEAD" ON UNIT   1 AT TIME STEP 53, STRESS PERIOD   2
 UBDSV1 SAVING "FLOW RIGHT FACE " ON UNIT   1 AT TIME STEP 53, STRESS PERIOD   2
 UBDSV1 SAVING "FLOW FRONT FACE " ON UNIT   1 AT TIME STEP 53, STRESS PERIOD   2
1
              HEAD IN LAYER   1 AT END OF TIME STEP  53 IN STRESS PERIOD    2
  ---------------------------------------------------------------------------

            1           2           3           4           5           6           7           8           9          10
           11          12          13          14          15
 ........................................................................................................................
   1    4.590       4.590       4.590       4.590       4.590       4.590       4.590       4.590       4.590       4.590    
        4.590       4.590       4.590       4.590       4.590    
   2    3.632       3.601       3.550       3.525       3.642       3.795       3.953       4.123       4.261       4.310    
        4.346       4.370       4.382       4.386       4.388    
   3    2.839       2.765       2.615       2.448       2.790       3.135       3.447       3.760       3.999       4.090    
        4.161       4.209       4.229       4.233       4.233    
   4    2.270       2.157       1.846      0.9912       2.085       2.660       3.091       3.506       3.813       3.941    
        4.048       4.126       4.140       4.134       4.128    
   5    1.979       1.912       1.778       1.646       2.055       2.490       2.915       3.364       3.705       3.862    
        4.016       4.157       4.123       4.085       4.066    
   6    1.931       1.910       1.889       1.932       2.174       2.505       2.885       3.320       3.663       3.836    
        4.048       4.414       4.159       4.068       4.036    
   7    2.081       2.087       2.115       2.200       2.383       2.644       2.969       3.359       3.672       3.821    
        3.973       4.114       4.080       4.043       4.024    
   8    2.400       2.416       2.457       2.543       2.688       2.893       3.154       3.475       3.737       3.854    
        3.958       4.036       4.052       4.047       4.041    
   9    2.860       2.877       2.916       2.986       3.094       3.242       3.433       3.668       3.862       3.945    
        4.015       4.066       4.089       4.096       4.097    
  10    3.438       3.450       3.478       3.525       3.594       3.686       3.800       3.935       4.043       4.090    
        4.131       4.164       4.183       4.192       4.196    
  11    4.100       4.107       4.121       4.143       4.174       4.211       4.250       4.278       4.265       4.274    
        4.292       4.309       4.322       4.329       4.332    
  12    4.528       4.531       4.536       4.544       4.554       4.563       4.566       4.556       4.495       4.478    
        4.479       4.486       4.493       4.498       4.500    
  13    4.673       4.675       4.678       4.683       4.687       4.692       4.694       4.691       4.685       4.680    
        4.681       4.684       4.687       4.690       4.691    
  14    4.822       4.822       4.823       4.825       4.827       4.828       4.830       4.833       4.844       4.847    
        4.849       4.851       4.852       4.854       4.854    
  15    4.972       4.971       4.971       4.969       4.968       4.968       4.969       4.971       4.974       4.976    
        4.978       4.979       4.980       4.980       4.981    
  16    4.868       4.862       4.850       4.833       4.817       4.810       4.823       4.845       4.868       4.888    
        4.904       4.916       4.925       4.930       4.933    
  17    4.772       4.759       4.734       4.699       4.659       4.635       4.669       4.719       4.767       4.806    
        4.836       4.859       4.874       4.884       4.889    
  18    4.690       4.671       4.632       4.571       4.487       4.403       4.500       4.599       4.677       4.736    
        4.779       4.811       4.833       4.846       4.853    
  19    4.631       4.607       4.556       4.469       4.317       3.993       4.333       4.502       4.609       4.684    
        4.738       4.776       4.803       4.819       4.827    
  20    4.601       4.575       4.521       4.435       4.321       4.216       4.339       4.471       4.578       4.658    
        4.717       4.759       4.787       4.805       4.814    

 HEAD WILL BE SAVED ON UNIT   51 AT END OF TIME STEP   53, STRESS PERIOD    2

 DRAWDOWN WILL BE SAVED ON UNIT   52 AT END OF TIME STEP   53, STRESS PERIOD    2
1
  VOLUMETRIC BUDGET FOR ENTIRE MODEL AT END OF TIME STEP   53, STRESS PERIOD   2
  ------------------------------------------------------------------------------

     CUMULATIVE VOLUMES      L**3       RATES FOR THIS TIME STEP      L**3/T
     ------------------                 ------------------------

           IN:                                      IN:
           ---                                      ---
             STORAGE =         683.3799               STORAGE =           0.0000
       CONSTANT HEAD =       38968.1055         CONSTANT HEAD =         649.0194
               WELLS =       11200.0000                 WELLS =         200.0000
       RIVER LEAKAGE =      178010.4688         RIVER LEAKAGE =         983.8954

            TOTAL IN =      228861.9531              TOTAL IN =        1832.9148

          OUT:                                     OUT:
          ----                                     ----
             STORAGE =      198438.8750               STORAGE =        1282.9141
       CONSTANT HEAD =           0.0000         CONSTANT HEAD =           0.0000
               WELLS =       29750.0000                 WELLS =         550.0000
       RIVER LEAKAGE =         673.0626         RIVER LEAKAGE =           0.0000

           TOTAL OUT =      228861.9375             TOTAL OUT =        1832.9141

            IN - OUT =       1.5625E-02              IN - OUT =       7.3242E-04

 PERCENT DISCREPANCY =           0.00     PERCENT DISCREPANCY =           0.00






         TIME SUMMARY AT END OF TIME STEP   53 IN STRESS PERIOD    2
                    SECONDS     MINUTES      HOURS       DAYS        YEARS
                    -----------------------------------------------------------
   TIME STEP LENGTH  86400.      1440.0      24.000      1.0000     2.73785E-03
 STRESS PERIOD TIME 4.57920E+06  76320.      1272.0      53.000     0.14511    
         TOTAL TIME 4.66560E+06  77760.      1296.0      54.000     0.14784    
1
 
 SOLVING FOR HEAD 

 OUTPUT CONTROL FOR STRESS PERIOD    2   TIME STEP   54
    SAVE HEAD FOR ALL LAYERS
    SAVE DRAWDOWN FOR ALL LAYERS
    SAVE BUDGET
    PRINT HEAD FOR ALL LAYERS
    PRINT BUDGET
 UBDSV1 SAVING "         STORAGE" ON UNIT   1 AT TIME STEP 54, STRESS PERIOD   2
 UBDSV2 SAVING "   CONSTANT HEAD" ON UNIT   1 AT TIME STEP 54, STRESS PERIOD   2
 UBDSV1 SAVING "FLOW RIGHT FACE " ON UNIT   1 AT TIME STEP 54, STRESS PERIOD   2
 UBDSV1 SAVING "FLOW FRONT FACE " ON UNIT   1 AT TIME STEP 54, STRESS PERIOD   2
1
              HEAD IN LAYER   1 AT END OF TIME STEP  54 IN STRESS PERIOD    2
  ---------------------------------------------------------------------------

            1           2           3           4           5           6           7           8           9          10
           11          12          13          14          15
 ........................................................................................................................
   1    4.620       4.620       4.620       4.620       4.620       4.620       4.620       4.620       4.620       4.620    
        4.620       4.620       4.620       4.620       4.620    
   2    3.664       3.633       3.582       3.557       3.674       3.827       3.985       4.154       4.292       4.341    
        4.377       4.401       4.413       4.418       4.419    
   3    2.873       2.799       2.649       2.482       2.824       3.169       3.480       3.794       4.031       4.123    
        4.193       4.241       4.261       4.265       4.265    
   4    2.305       2.192       1.881       1.028       2.122       2.696       3.127       3.540       3.847       3.974    
        4.081       4.159       4.173       4.167       4.160    
   5    2.016       1.949       1.815       1.683       2.092       2.527       2.952       3.399       3.739       3.895    
        4.049       4.190       4.155       4.118       4.099    
   6    1.968       1.947       1.926       1.970       2.212       2.542       2.921       3.355       3.697       3.869    
        4.080       4.446       4.191       4.100       4.068    
   7    2.117       2.123       2.151       2.236       2.420       2.681       3.004       3.392       3.704       3.853    
        4.004       4.145       4.111       4.073       4.055    
   8    2.433       2.449       2.491       2.577       2.722       2.926       3.187       3.507       3.767       3.883    
        3.987       4.065       4.080       4.075       4.070    
   9    2.889       2.906       2.945       3.015       3.123       3.271       3.461       3.696       3.889       3.971    
        4.041       4.092       4.115       4.122       4.123    
  10    3.460       3.472       3.500       3.548       3.617       3.709       3.823       3.957       4.065       4.112    
        4.154       4.186       4.205       4.215       4.218    
  11    4.113       4.120       4.134       4.156       4.187       4.225       4.265       4.294       4.282       4.292    
        4.309       4.327       4.340       4.347       4.351    
  12    4.535       4.538       4.544       4.552       4.561       4.571       4.575       4.565       4.507       4.490    
        4.492       4.499       4.506       4.511       4.514    
  13    4.679       4.680       4.683       4.688       4.693       4.697       4.700       4.697       4.692       4.688    
        4.688       4.692       4.695       4.698       4.699    
  14    4.825       4.825       4.826       4.828       4.830       4.832       4.834       4.837       4.848       4.851    
        4.852       4.854       4.856       4.857       4.858    
  15    4.972       4.972       4.971       4.970       4.968       4.968       4.969       4.972       4.974       4.977    
        4.978       4.979       4.980       4.981       4.981    
  16    4.870       4.863       4.851       4.835       4.819       4.812       4.825       4.847       4.870       4.890    
        4.906       4.918       4.927       4.932       4.935    
  17    4.774       4.762       4.737       4.701       4.662       4.638       4.671       4.722       4.770       4.809    
        4.839       4.862       4.877       4.887       4.892    
  18    4.694       4.675       4.636       4.574       4.490       4.407       4.504       4.602       4.680       4.739    
        4.783       4.815       4.837       4.850       4.857    
  19    4.636       4.612       4.561       4.473       4.321       3.997       4.337       4.506       4.614       4.689    
        4.743       4.781       4.807       4.824       4.832    
  20    4.605       4.579       4.525       4.440       4.326       4.221       4.343       4.476       4.583       4.663    
        4.721       4.763       4.792       4.810       4.819    

 HEAD WILL BE SAVED ON UNIT   51 AT END OF TIME STEP   54, STRESS PERIOD    2

 DRAWDOWN WILL BE SAVED ON UNIT   52 AT END OF TIME STEP   54, STRESS PERIOD    2
1
  VOLUMETRIC BUDGET FOR ENTIRE MODEL AT END OF TIME STEP   54, STRESS PERIOD   2
  ------------------------------------------------------------------------------

     CUMULATIVE VOLUMES      L**3       RATES FOR THIS TIME STEP      L**3/T
     ------------------                 ------------------------

           IN:                                      IN:
           ---                                      ---
             STORAGE =         683.3799               STORAGE =           0.0000
       CONSTANT HEAD =       39615.3008         CONSTANT HEAD =         647.1943
               WELLS =       11400.0000                 WELLS =         200.0000
       RIVER LEAKAGE =      178977.4375         RIVER LEAKAGE =         966.9679

            TOTAL IN =      230676.1250              TOTAL IN =        1814.1621

          OUT:                                     OUT:
          ----                                     ----
             STORAGE =      199703.0312               STORAGE =        1264.1637
       CONSTANT HEAD =           0.0000         CONSTANT HEAD =           0.0000
               WELLS =       30300.0000                 WELLS =         550.0000
       RIVER LEAKAGE =         673.0626         RIVER LEAKAGE =           0.0000

           TOTAL OUT =      230676.0938             TOTAL OUT =        1814.1637

            IN - OUT =       3.1250E-02              IN - OUT =      -1.5869E-03

 PERCENT DISCREPANCY =           0.00     PERCENT DISCREPANCY =          -0.00






         TIME SUMMARY AT END OF TIME STEP   54 IN STRESS PERIOD    2
                    SECONDS     MINUTES      HOURS       DAYS        YEARS
                    -----------------------------------------------------------
   TIME STEP LENGTH  86400.      1440.0      24.000      1.0000     2.73785E-03
 STRESS PERIOD TIME 4.66560E+06  77760.      1296.0      54.000     0.14784    
         TOTAL TIME 4.75200E+06  79200.      1320.0      55.000     0.15058    
1
 
 SOLVING FOR HEAD 

 OUTPUT CONTROL FOR STRESS PERIOD    2   TIME STEP   55
    SAVE HEAD FOR ALL LAYERS
    SAVE DRAWDOWN FOR ALL LAYERS
    SAVE BUDGET
    PRINT HEAD FOR ALL LAYERS
    PRINT BUDGET
 UBDSV1 SAVING "         STORAGE" ON UNIT   1 AT TIME STEP 55, STRESS PERIOD   2
 UBDSV2 SAVING "   CONSTANT HEAD" ON UNIT   1 AT TIME STEP 55, STRESS PERIOD   2
 UBDSV1 SAVING "FLOW RIGHT FACE " ON UNIT   1 AT TIME STEP 55, STRESS PERIOD   2
 UBDSV1 SAVING "FLOW FRONT FACE " ON UNIT   1 AT TIME STEP 55, STRESS PERIOD   2
1
              HEAD IN LAYER   1 AT END OF TIME STEP  55 IN STRESS PERIOD    2
  ---------------------------------------------------------------------------

            1           2           3           4           5           6           7           8           9          10
           11          12          13          14          15
 ........................................................................................................................
   1    4.650       4.650       4.650       4.650       4.650       4.650       4.650       4.650       4.650       4.650    
        4.650       4.650       4.650       4.650       4.650    
   2    3.696       3.665       3.614       3.589       3.706       3.859       4.017       4.186       4.324       4.373    
        4.408       4.432       4.444       4.449       4.450    
   3    2.906       2.833       2.683       2.516       2.859       3.203       3.514       3.827       4.064       4.155    
        4.225       4.273       4.293       4.297       4.297    
   4    2.341       2.228       1.917       1.065       2.158       2.731       3.162       3.575       3.880       4.007    
        4.114       4.191       4.205       4.199       4.192    
   5    2.052       1.985       1.852       1.720       2.129       2.564       2.988       3.433       3.772       3.928    
        4.082       4.222       4.188       4.150       4.131    
   6    2.004       1.984       1.963       2.007       2.249       2.578       2.957       3.389       3.730       3.901    
        4.112       4.478       4.223       4.132       4.100    
   7    2.153       2.159       2.187       2.272       2.456       2.716       3.039       3.426       3.736       3.884    
        4.035       4.175       4.141       4.104       4.085    
   8    2.466       2.482       2.524       2.610       2.755       2.959       3.219       3.538       3.796       3.912    
        4.016       4.093       4.109       4.104       4.098    
   9    2.918       2.934       2.974       3.043       3.152       3.300       3.489       3.723       3.915       3.997    
        4.067       4.117       4.140       4.148       4.149    
  10    3.481       3.494       3.522       3.569       3.639       3.731       3.845       3.979       4.087       4.134    
        4.175       4.208       4.227       4.237       4.240    
  11    4.126       4.133       4.147       4.170       4.201       4.239       4.279       4.309       4.298       4.309    
        4.327       4.344       4.357       4.365       4.368    
  12    4.542       4.545       4.551       4.559       4.569       4.579       4.583       4.574       4.518       4.502    
        4.505       4.512       4.519       4.524       4.527    
  13    4.684       4.685       4.688       4.693       4.698       4.703       4.705       4.704       4.699       4.695    
        4.696       4.699       4.703       4.706       4.707    
  14    4.827       4.828       4.829       4.831       4.832       4.835       4.837       4.840       4.851       4.854    
        4.856       4.858       4.860       4.861       4.862    
  15    4.973       4.972       4.971       4.970       4.969       4.968       4.970       4.972       4.975       4.977    
        4.979       4.980       4.981       4.981       4.982    
  16    4.871       4.865       4.853       4.837       4.821       4.814       4.826       4.848       4.871       4.892    
        4.908       4.920       4.928       4.934       4.936    
  17    4.777       4.764       4.740       4.704       4.664       4.640       4.674       4.725       4.772       4.812    
        4.842       4.864       4.880       4.890       4.895    
  18    4.697       4.678       4.639       4.578       4.494       4.410       4.507       4.606       4.684       4.743    
        4.787       4.818       4.840       4.854       4.860    
  19    4.640       4.616       4.565       4.477       4.325       4.002       4.341       4.511       4.618       4.693    
        4.747       4.785       4.812       4.828       4.836    
  20    4.610       4.584       4.530       4.444       4.330       4.225       4.348       4.481       4.587       4.667    
        4.726       4.768       4.797       4.815       4.823    

 HEAD WILL BE SAVED ON UNIT   51 AT END OF TIME STEP   55, STRESS PERIOD    2

 DRAWDOWN WILL BE SAVED ON UNIT   52 AT END OF TIME STEP   55, STRESS PERIOD    2
1
  VOLUMETRIC BUDGET FOR ENTIRE MODEL AT END OF TIME STEP   55, STRESS PERIOD   2
  ------------------------------------------------------------------------------

     CUMULATIVE VOLUMES      L**3       RATES FOR THIS TIME STEP      L**3/T
     ------------------                 ------------------------

           IN:                                      IN:
           ---                                      ---
             STORAGE =         683.3799               STORAGE =           0.0000
       CONSTANT HEAD =       40260.7812         CONSTANT HEAD =         645.4823
               WELLS =       11600.0000                 WELLS =         200.0000
       RIVER LEAKAGE =      179928.1406         RIVER LEAKAGE =         950.7024

            TOTAL IN =      232472.2969              TOTAL IN =        1796.1847

          OUT:                                     OUT:
          ----                                     ----
             STORAGE =      200949.2188               STORAGE =        1246.1848
       CONSTANT HEAD =           0.0000         CONSTANT HEAD =           0.0000
               WELLS =       30850.0000                 WELLS =         550.0000
       RIVER LEAKAGE =         673.0626         RIVER LEAKAGE =           0.0000

           TOTAL OUT =      232472.2812             TOTAL OUT =        1796.1848

            IN - OUT =       1.5625E-02              IN - OUT =      -1.2207E-04

 PERCENT DISCREPANCY =           0.00     PERCENT DISCREPANCY =          -0.00






         TIME SUMMARY AT END OF TIME STEP   55 IN STRESS PERIOD    2
                    SECONDS     MINUTES      HOURS       DAYS        YEARS
                    -----------------------------------------------------------
   TIME STEP LENGTH  86400.      1440.0      24.000      1.0000     2.73785E-03
 STRESS PERIOD TIME 4.75200E+06  79200.      1320.0      55.000     0.15058    
         TOTAL TIME 4.83840E+06  80640.      1344.0      56.000     0.15332    
1
 
 SOLVING FOR HEAD 

 OUTPUT CONTROL FOR STRESS PERIOD    2   TIME STEP   56
    SAVE HEAD FOR ALL LAYERS
    SAVE DRAWDOWN FOR ALL LAYERS
    SAVE BUDGET
    PRINT HEAD FOR ALL LAYERS
    PRINT BUDGET
 UBDSV1 SAVING "         STORAGE" ON UNIT   1 AT TIME STEP 56, STRESS PERIOD   2
 UBDSV2 SAVING "   CONSTANT HEAD" ON UNIT   1 AT TIME STEP 56, STRESS PERIOD   2
 UBDSV1 SAVING "FLOW RIGHT FACE " ON UNIT   1 AT TIME STEP 56, STRESS PERIOD   2
 UBDSV1 SAVING "FLOW FRONT FACE " ON UNIT   1 AT TIME STEP 56, STRESS PERIOD   2
1
              HEAD IN LAYER   1 AT END OF TIME STEP  56 IN STRESS PERIOD    2
  ---------------------------------------------------------------------------

            1           2           3           4           5           6           7           8           9          10
           11          12          13          14          15
 ........................................................................................................................
   1    4.680       4.680       4.680       4.680       4.680       4.680       4.680       4.680       4.680       4.680    
        4.680       4.680       4.680       4.680       4.680    
   2    3.728       3.697       3.646       3.622       3.738       3.891       4.049       4.218       4.355       4.404    
        4.439       4.463       4.475       4.479       4.480    
   3    2.940       2.867       2.717       2.551       2.893       3.237       3.548       3.860       4.096       4.187    
        4.257       4.305       4.324       4.329       4.328    
   4    2.376       2.263       1.953       1.101       2.193       2.767       3.197       3.608       3.913       4.039    
        4.146       4.223       4.237       4.231       4.224    
   5    2.088       2.022       1.889       1.757       2.166       2.600       3.023       3.468       3.806       3.960    
        4.114       4.254       4.219       4.182       4.163    
   6    2.041       2.020       2.000       2.044       2.285       2.615       2.992       3.423       3.762       3.933    
        4.144       4.509       4.254       4.163       4.131    
   7    2.189       2.194       2.223       2.308       2.491       2.752       3.073       3.459       3.767       3.915    
        4.065       4.205       4.171       4.133       4.115    
   8    2.499       2.515       2.557       2.643       2.788       2.992       3.251       3.568       3.825       3.941    
        4.044       4.121       4.136       4.131       4.126    
   9    2.946       2.963       3.002       3.072       3.180       3.328       3.517       3.750       3.940       4.022    
        4.092       4.142       4.165       4.173       4.174    
  10    3.502       3.515       3.544       3.591       3.660       3.753       3.866       4.001       4.108       4.155    
        4.197       4.229       4.249       4.258       4.262    
  11    4.139       4.146       4.160       4.183       4.214       4.252       4.293       4.323       4.314       4.326    
        4.344       4.362       4.375       4.382       4.386    
  12    4.549       4.552       4.558       4.566       4.576       4.586       4.591       4.583       4.529       4.514    
        4.517       4.525       4.532       4.537       4.540    
  13    4.688       4.690       4.693       4.698       4.703       4.708       4.711       4.710       4.706       4.702    
        4.703       4.707       4.711       4.714       4.715    
  14    4.830       4.831       4.832       4.833       4.835       4.838       4.840       4.843       4.854       4.857    
        4.859       4.861       4.863       4.865       4.866    
  15    4.973       4.973       4.972       4.970       4.969       4.969       4.970       4.972       4.975       4.977    
        4.979       4.980       4.981       4.982       4.982    
  16    4.873       4.866       4.854       4.838       4.822       4.815       4.828       4.850       4.873       4.893    
        4.909       4.921       4.930       4.935       4.938    
  17    4.779       4.767       4.742       4.706       4.667       4.643       4.677       4.727       4.775       4.814    
        4.845       4.867       4.883       4.892       4.897    
  18    4.701       4.682       4.643       4.581       4.497       4.414       4.511       4.609       4.687       4.746    
        4.790       4.822       4.843       4.857       4.864    
  19    4.643       4.619       4.568       4.481       4.329       4.005       4.345       4.514       4.622       4.697    
        4.751       4.789       4.815       4.832       4.840    
  20    4.614       4.588       4.534       4.449       4.335       4.230       4.352       4.485       4.591       4.671    
        4.730       4.772       4.801       4.819       4.827    

 HEAD WILL BE SAVED ON UNIT   51 AT END OF TIME STEP   56, STRESS PERIOD    2

 DRAWDOWN WILL BE SAVED ON UNIT   52 AT END OF TIME STEP   56, STRESS PERIOD    2
1
  VOLUMETRIC BUDGET FOR ENTIRE MODEL AT END OF TIME STEP   56, STRESS PERIOD   2
  ------------------------------------------------------------------------------

     CUMULATIVE VOLUMES      L**3       RATES FOR THIS TIME STEP      L**3/T
     ------------------                 ------------------------

           IN:                                      IN:
           ---                                      ---
             STORAGE =         683.3799               STORAGE =           0.0000
       CONSTANT HEAD =       40904.6641         CONSTANT HEAD =         643.8818
               WELLS =       11800.0000                 WELLS =         200.0000
       RIVER LEAKAGE =      180863.1875         RIVER LEAKAGE =         935.0530

            TOTAL IN =      234251.2344              TOTAL IN =        1778.9348

          OUT:                                     OUT:
          ----                                     ----
             STORAGE =      202178.1562               STORAGE =        1228.9373
       CONSTANT HEAD =           0.0000         CONSTANT HEAD =           0.0000
               WELLS =       31400.0000                 WELLS =         550.0000
       RIVER LEAKAGE =         673.0626         RIVER LEAKAGE =           0.0000

           TOTAL OUT =      234251.2188             TOTAL OUT =        1778.9373

            IN - OUT =       1.5625E-02              IN - OUT =      -2.4414E-03

 PERCENT DISCREPANCY =           0.00     PERCENT DISCREPANCY =          -0.00






         TIME SUMMARY AT END OF TIME STEP   56 IN STRESS PERIOD    2
                    SECONDS     MINUTES      HOURS       DAYS        YEARS
                    -----------------------------------------------------------
   TIME STEP LENGTH  86400.      1440.0      24.000      1.0000     2.73785E-03
 STRESS PERIOD TIME 4.83840E+06  80640.      1344.0      56.000     0.15332    
         TOTAL TIME 4.92480E+06  82080.      1368.0      57.000     0.15606    
1
 
 SOLVING FOR HEAD 

 OUTPUT CONTROL FOR STRESS PERIOD    2   TIME STEP   57
    SAVE HEAD FOR ALL LAYERS
    SAVE DRAWDOWN FOR ALL LAYERS
    SAVE BUDGET
    PRINT HEAD FOR ALL LAYERS
    PRINT BUDGET
 UBDSV1 SAVING "         STORAGE" ON UNIT   1 AT TIME STEP 57, STRESS PERIOD   2
 UBDSV2 SAVING "   CONSTANT HEAD" ON UNIT   1 AT TIME STEP 57, STRESS PERIOD   2
 UBDSV1 SAVING "FLOW RIGHT FACE " ON UNIT   1 AT TIME STEP 57, STRESS PERIOD   2
 UBDSV1 SAVING "FLOW FRONT FACE " ON UNIT   1 AT TIME STEP 57, STRESS PERIOD   2
1
              HEAD IN LAYER   1 AT END OF TIME STEP  57 IN STRESS PERIOD    2
  ---------------------------------------------------------------------------

            1           2           3           4           5           6           7           8           9          10
           11          12          13          14          15
 ........................................................................................................................
   1    4.710       4.710       4.710       4.710       4.710       4.710       4.710       4.710       4.710       4.710    
        4.710       4.710       4.710       4.710       4.710    
   2    3.759       3.729       3.678       3.654       3.770       3.923       4.081       4.249       4.386       4.435    
        4.470       4.494       4.506       4.510       4.511    
   3    2.974       2.901       2.751       2.585       2.927       3.271       3.581       3.892       4.128       4.219    
        4.289       4.336       4.356       4.360       4.360    
   4    2.411       2.299       1.989       1.138       2.229       2.802       3.231       3.642       3.946       4.071    
        4.178       4.255       4.269       4.262       4.256    
   5    2.124       2.058       1.925       1.794       2.202       2.637       3.059       3.502       3.838       3.993    
        4.146       4.286       4.251       4.213       4.194    
   6    2.077       2.057       2.036       2.080       2.322       2.651       3.028       3.457       3.794       3.965    
        4.175       4.540       4.285       4.194       4.162    
   7    2.224       2.230       2.258       2.343       2.527       2.787       3.108       3.491       3.798       3.945    
        4.095       4.235       4.200       4.163       4.144    
   8    2.531       2.547       2.590       2.675       2.821       3.024       3.282       3.598       3.854       3.969    
        4.072       4.149       4.164       4.159       4.153    
   9    2.973       2.990       3.029       3.100       3.208       3.356       3.544       3.776       3.966       4.047    
        4.116       4.167       4.190       4.197       4.198    
  10    3.523       3.536       3.565       3.612       3.682       3.774       3.888       4.022       4.129       4.176    
        4.218       4.250       4.270       4.279       4.283    
  11    4.151       4.158       4.173       4.195       4.227       4.265       4.306       4.338       4.330       4.342    
        4.360       4.378       4.392       4.399       4.403    
  12    4.556       4.559       4.565       4.573       4.584       4.594       4.599       4.592       4.539       4.526    
        4.529       4.537       4.544       4.550       4.552    
  13    4.693       4.695       4.698       4.703       4.708       4.714       4.717       4.716       4.712       4.709    
        4.711       4.714       4.718       4.721       4.723    
  14    4.833       4.833       4.834       4.836       4.838       4.840       4.843       4.847       4.857       4.861    
        4.863       4.865       4.867       4.868       4.869    
  15    4.973       4.973       4.972       4.971       4.970       4.969       4.971       4.973       4.976       4.978    
        4.980       4.981       4.982       4.982       4.983    
  16    4.874       4.868       4.856       4.839       4.823       4.816       4.829       4.851       4.874       4.895    
        4.911       4.923       4.931       4.937       4.939    
  17    4.781       4.769       4.744       4.709       4.669       4.645       4.679       4.729       4.777       4.816    
        4.847       4.869       4.885       4.895       4.900    
  18    4.703       4.685       4.646       4.584       4.500       4.417       4.514       4.612       4.690       4.749    
        4.793       4.825       4.846       4.860       4.867    
  19    4.647       4.623       4.572       4.484       4.332       4.009       4.349       4.518       4.625       4.700    
        4.754       4.793       4.819       4.835       4.843    
  20    4.617       4.591       4.537       4.452       4.338       4.233       4.356       4.489       4.595       4.675    
        4.734       4.776       4.805       4.823       4.831    

 HEAD WILL BE SAVED ON UNIT   51 AT END OF TIME STEP   57, STRESS PERIOD    2

 DRAWDOWN WILL BE SAVED ON UNIT   52 AT END OF TIME STEP   57, STRESS PERIOD    2
1
  VOLUMETRIC BUDGET FOR ENTIRE MODEL AT END OF TIME STEP   57, STRESS PERIOD   2
  ------------------------------------------------------------------------------

     CUMULATIVE VOLUMES      L**3       RATES FOR THIS TIME STEP      L**3/T
     ------------------                 ------------------------

           IN:                                      IN:
           ---                                      ---
             STORAGE =         683.3799               STORAGE =           0.0000
       CONSTANT HEAD =       41547.0547         CONSTANT HEAD =         642.3912
               WELLS =       12000.0000                 WELLS =         200.0000
       RIVER LEAKAGE =      181783.1719         RIVER LEAKAGE =         919.9865

            TOTAL IN =      236013.6094              TOTAL IN =        1762.3777

          OUT:                                     OUT:
          ----                                     ----
             STORAGE =      203390.5312               STORAGE =        1212.3763
       CONSTANT HEAD =           0.0000         CONSTANT HEAD =           0.0000
               WELLS =       31950.0000                 WELLS =         550.0000
       RIVER LEAKAGE =         673.0626         RIVER LEAKAGE =           0.0000

           TOTAL OUT =      236013.5938             TOTAL OUT =        1762.3763

            IN - OUT =       1.5625E-02              IN - OUT =       1.3428E-03

 PERCENT DISCREPANCY =           0.00     PERCENT DISCREPANCY =           0.00






         TIME SUMMARY AT END OF TIME STEP   57 IN STRESS PERIOD    2
                    SECONDS     MINUTES      HOURS       DAYS        YEARS
                    -----------------------------------------------------------
   TIME STEP LENGTH  86400.      1440.0      24.000      1.0000     2.73785E-03
 STRESS PERIOD TIME 4.92480E+06  82080.      1368.0      57.000     0.15606    
         TOTAL TIME 5.01120E+06  83520.      1392.0      58.000     0.15880    
1
 
 SOLVING FOR HEAD 

 OUTPUT CONTROL FOR STRESS PERIOD    2   TIME STEP   58
    SAVE HEAD FOR ALL LAYERS
    SAVE DRAWDOWN FOR ALL LAYERS
    SAVE BUDGET
    PRINT HEAD FOR ALL LAYERS
    PRINT BUDGET
 UBDSV1 SAVING "         STORAGE" ON UNIT   1 AT TIME STEP 58, STRESS PERIOD   2
 UBDSV2 SAVING "   CONSTANT HEAD" ON UNIT   1 AT TIME STEP 58, STRESS PERIOD   2
 UBDSV1 SAVING "FLOW RIGHT FACE " ON UNIT   1 AT TIME STEP 58, STRESS PERIOD   2
 UBDSV1 SAVING "FLOW FRONT FACE " ON UNIT   1 AT TIME STEP 58, STRESS PERIOD   2
1
              HEAD IN LAYER   1 AT END OF TIME STEP  58 IN STRESS PERIOD    2
  ---------------------------------------------------------------------------

            1           2           3           4           5           6           7           8           9          10
           11          12          13          14          15
 ........................................................................................................................
   1    4.740       4.740       4.740       4.740       4.740       4.740       4.740       4.740       4.740       4.740    
        4.740       4.740       4.740       4.740       4.740    
   2    3.791       3.761       3.710       3.686       3.802       3.955       4.112       4.280       4.417       4.466    
        4.501       4.525       4.537       4.541       4.542    
   3    3.007       2.934       2.785       2.619       2.961       3.304       3.614       3.925       4.160       4.250    
        4.320       4.368       4.387       4.391       4.391    
   4    2.446       2.334       2.024       1.174       2.265       2.837       3.266       3.676       3.978       4.104    
        4.210       4.287       4.300       4.294       4.287    
   5    2.160       2.094       1.962       1.830       2.239       2.672       3.094       3.536       3.871       4.025    
        4.177       4.317       4.282       4.244       4.225    
   6    2.113       2.093       2.073       2.117       2.358       2.687       3.063       3.490       3.826       3.996    
        4.206       4.570       4.315       4.224       4.192    
   7    2.258       2.264       2.293       2.378       2.562       2.821       3.141       3.523       3.828       3.975    
        4.125       4.264       4.229       4.192       4.173    
   8    2.563       2.579       2.622       2.708       2.853       3.056       3.313       3.628       3.882       3.996    
        4.099       4.176       4.191       4.186       4.180    
   9    3.000       3.017       3.057       3.127       3.235       3.383       3.571       3.802       3.990       4.072    
        4.141       4.191       4.214       4.221       4.223    
  10    3.544       3.557       3.585       3.633       3.703       3.795       3.909       4.043       4.149       4.197    
        4.238       4.271       4.290       4.300       4.303    
  11    4.164       4.171       4.185       4.208       4.240       4.278       4.320       4.352       4.346       4.358    
        4.377       4.395       4.408       4.416       4.420    
  12    4.563       4.566       4.572       4.580       4.591       4.601       4.607       4.600       4.550       4.537    
        4.541       4.549       4.557       4.562       4.564    
  13    4.698       4.700       4.703       4.708       4.713       4.719       4.722       4.722       4.719       4.716    
        4.718       4.722       4.726       4.729       4.730    
  14    4.835       4.836       4.837       4.839       4.841       4.843       4.846       4.850       4.860       4.864    
        4.866       4.868       4.870       4.872       4.873    
  15    4.974       4.973       4.972       4.971       4.970       4.970       4.971       4.973       4.976       4.978    
        4.980       4.981       4.982       4.983       4.983    
  16    4.875       4.869       4.857       4.841       4.825       4.818       4.830       4.852       4.876       4.896    
        4.912       4.924       4.932       4.938       4.940    
  17    4.784       4.771       4.746       4.711       4.671       4.647       4.681       4.732       4.779       4.819    
        4.849       4.871       4.887       4.897       4.902    
  18    4.706       4.687       4.648       4.587       4.503       4.420       4.516       4.615       4.693       4.752    
        4.796       4.828       4.849       4.863       4.870    
  19    4.650       4.626       4.575       4.488       4.336       4.012       4.352       4.521       4.628       4.704    
        4.758       4.796       4.822       4.839       4.847    
  20    4.621       4.595       4.541       4.456       4.342       4.237       4.359       4.492       4.599       4.679    
        4.738       4.780       4.808       4.826       4.835    

 HEAD WILL BE SAVED ON UNIT   51 AT END OF TIME STEP   58, STRESS PERIOD    2

 DRAWDOWN WILL BE SAVED ON UNIT   52 AT END OF TIME STEP   58, STRESS PERIOD    2
1
  VOLUMETRIC BUDGET FOR ENTIRE MODEL AT END OF TIME STEP   58, STRESS PERIOD   2
  ------------------------------------------------------------------------------

     CUMULATIVE VOLUMES      L**3       RATES FOR THIS TIME STEP      L**3/T
     ------------------                 ------------------------

           IN:                                      IN:
           ---                                      ---
             STORAGE =         683.3799               STORAGE =           0.0000
       CONSTANT HEAD =       42188.0664         CONSTANT HEAD =         641.0098
               WELLS =       12200.0000                 WELLS =         200.0000
       RIVER LEAKAGE =      182688.6250         RIVER LEAKAGE =         905.4590

            TOTAL IN =      237760.0625              TOTAL IN =        1746.4689

          OUT:                                     OUT:
          ----                                     ----
             STORAGE =      204587.0000               STORAGE =        1196.4692
       CONSTANT HEAD =           0.0000         CONSTANT HEAD =           0.0000
               WELLS =       32500.0000                 WELLS =         550.0000
       RIVER LEAKAGE =         673.0626         RIVER LEAKAGE =           0.0000

           TOTAL OUT =      237760.0625             TOTAL OUT =        1746.4692

            IN - OUT =           0.0000              IN - OUT =      -3.6621E-04

 PERCENT DISCREPANCY =           0.00     PERCENT DISCREPANCY =          -0.00






         TIME SUMMARY AT END OF TIME STEP   58 IN STRESS PERIOD    2
                    SECONDS     MINUTES      HOURS       DAYS        YEARS
                    -----------------------------------------------------------
   TIME STEP LENGTH  86400.      1440.0      24.000      1.0000     2.73785E-03
 STRESS PERIOD TIME 5.01120E+06  83520.      1392.0      58.000     0.15880    
         TOTAL TIME 5.09760E+06  84960.      1416.0      59.000     0.16153    
1
 
 SOLVING FOR HEAD 

 OUTPUT CONTROL FOR STRESS PERIOD    2   TIME STEP   59
    SAVE HEAD FOR ALL LAYERS
    SAVE DRAWDOWN FOR ALL LAYERS
    SAVE BUDGET
    PRINT HEAD FOR ALL LAYERS
    PRINT BUDGET
 UBDSV1 SAVING "         STORAGE" ON UNIT   1 AT TIME STEP 59, STRESS PERIOD   2
 UBDSV2 SAVING "   CONSTANT HEAD" ON UNIT   1 AT TIME STEP 59, STRESS PERIOD   2
 UBDSV1 SAVING "FLOW RIGHT FACE " ON UNIT   1 AT TIME STEP 59, STRESS PERIOD   2
 UBDSV1 SAVING "FLOW FRONT FACE " ON UNIT   1 AT TIME STEP 59, STRESS PERIOD   2
1
              HEAD IN LAYER   1 AT END OF TIME STEP  59 IN STRESS PERIOD    2
  ---------------------------------------------------------------------------

            1           2           3           4           5           6           7           8           9          10
           11          12          13          14          15
 ........................................................................................................................
   1    4.770       4.770       4.770       4.770       4.770       4.770       4.770       4.770       4.770       4.770    
        4.770       4.770       4.770       4.770       4.770    
   2    3.823       3.793       3.742       3.718       3.834       3.987       4.144       4.312       4.448       4.496    
        4.532       4.555       4.567       4.571       4.572    
   3    3.041       2.968       2.819       2.653       2.995       3.338       3.648       3.958       4.192       4.282    
        4.352       4.399       4.418       4.422       4.422    
   4    2.481       2.369       2.060       1.210       2.300       2.872       3.300       3.709       4.010       4.135    
        4.241       4.318       4.332       4.325       4.319    
   5    2.196       2.130       1.998       1.867       2.275       2.708       3.129       3.569       3.903       4.056    
        4.209       4.348       4.313       4.275       4.256    
   6    2.149       2.129       2.109       2.153       2.394       2.722       3.097       3.524       3.858       4.027    
        4.236       4.600       4.345       4.254       4.222    
   7    2.293       2.299       2.328       2.413       2.596       2.855       3.174       3.555       3.858       4.004    
        4.154       4.293       4.258       4.220       4.202    
   8    2.594       2.611       2.653       2.739       2.884       3.087       3.344       3.657       3.909       4.023    
        4.126       4.202       4.217       4.212       4.206    
   9    3.027       3.044       3.084       3.154       3.262       3.410       3.597       3.827       4.015       4.096    
        4.165       4.215       4.238       4.245       4.246    
  10    3.564       3.577       3.606       3.653       3.723       3.815       3.929       4.063       4.170       4.217    
        4.259       4.291       4.311       4.320       4.324    
  11    4.176       4.183       4.197       4.220       4.252       4.291       4.333       4.366       4.361       4.374    
        4.393       4.411       4.425       4.432       4.436    
  12    4.569       4.572       4.578       4.587       4.597       4.608       4.615       4.609       4.560       4.548    
        4.552       4.561       4.569       4.574       4.576    
  13    4.702       4.704       4.708       4.712       4.718       4.724       4.727       4.727       4.725       4.723    
        4.725       4.729       4.733       4.736       4.737    
  14    4.838       4.838       4.839       4.841       4.843       4.846       4.849       4.853       4.863       4.867    
        4.869       4.872       4.874       4.875       4.876    
  15    4.974       4.974       4.973       4.971       4.970       4.970       4.971       4.974       4.976       4.979    
        4.980       4.982       4.983       4.983       4.984    
  16    4.876       4.870       4.858       4.842       4.826       4.819       4.831       4.854       4.877       4.897    
        4.913       4.925       4.934       4.939       4.942    
  17    4.785       4.773       4.748       4.713       4.673       4.649       4.683       4.733       4.781       4.821    
        4.851       4.873       4.889       4.899       4.904    
  18    4.709       4.690       4.651       4.589       4.505       4.422       4.519       4.618       4.696       4.755    
        4.799       4.830       4.852       4.866       4.872    
  19    4.653       4.629       4.578       4.491       4.339       4.015       4.355       4.524       4.632       4.707    
        4.761       4.799       4.825       4.842       4.850    
  20    4.624       4.598       4.544       4.459       4.345       4.240       4.363       4.495       4.602       4.682    
        4.741       4.783       4.812       4.830       4.838    

 HEAD WILL BE SAVED ON UNIT   51 AT END OF TIME STEP   59, STRESS PERIOD    2

 DRAWDOWN WILL BE SAVED ON UNIT   52 AT END OF TIME STEP   59, STRESS PERIOD    2
1
  VOLUMETRIC BUDGET FOR ENTIRE MODEL AT END OF TIME STEP   59, STRESS PERIOD   2
  ------------------------------------------------------------------------------

     CUMULATIVE VOLUMES      L**3       RATES FOR THIS TIME STEP      L**3/T
     ------------------                 ------------------------

           IN:                                      IN:
           ---                                      ---
             STORAGE =         683.3799               STORAGE =           0.0000
       CONSTANT HEAD =       42827.8047         CONSTANT HEAD =         639.7373
               WELLS =       12400.0000                 WELLS =         200.0000
       RIVER LEAKAGE =      183580.0625         RIVER LEAKAGE =         891.4386

            TOTAL IN =      239491.2500              TOTAL IN =        1731.1759

          OUT:                                     OUT:
          ----                                     ----
             STORAGE =      205768.1719               STORAGE =        1181.1771
       CONSTANT HEAD =           0.0000         CONSTANT HEAD =           0.0000
               WELLS =       33050.0000                 WELLS =         550.0000
       RIVER LEAKAGE =         673.0626         RIVER LEAKAGE =           0.0000

           TOTAL OUT =      239491.2344             TOTAL OUT =        1731.1771

            IN - OUT =       1.5625E-02              IN - OUT =      -1.2207E-03

 PERCENT DISCREPANCY =           0.00     PERCENT DISCREPANCY =          -0.00






         TIME SUMMARY AT END OF TIME STEP   59 IN STRESS PERIOD    2
                    SECONDS     MINUTES      HOURS       DAYS        YEARS
                    -----------------------------------------------------------
   TIME STEP LENGTH  86400.      1440.0      24.000      1.0000     2.73785E-03
 STRESS PERIOD TIME 5.09760E+06  84960.      1416.0      59.000     0.16153    
         TOTAL TIME 5.18400E+06  86400.      1440.0      60.000     0.16427    
1
 
 SOLVING FOR HEAD 

 OUTPUT CONTROL FOR STRESS PERIOD    2   TIME STEP   60
    SAVE HEAD FOR ALL LAYERS
    SAVE DRAWDOWN FOR ALL LAYERS
    SAVE BUDGET
    PRINT HEAD FOR ALL LAYERS
    PRINT BUDGET
 UBDSV1 SAVING "         STORAGE" ON UNIT   1 AT TIME STEP 60, STRESS PERIOD   2
 UBDSV2 SAVING "   CONSTANT HEAD" ON UNIT   1 AT TIME STEP 60, STRESS PERIOD   2
 UBDSV1 SAVING "FLOW RIGHT FACE " ON UNIT   1 AT TIME STEP 60, STRESS PERIOD   2
 UBDSV1 SAVING "FLOW FRONT FACE " ON UNIT   1 AT TIME STEP 60, STRESS PERIOD   2
1
              HEAD IN LAYER   1 AT END OF TIME STEP  60 IN STRESS PERIOD    2
  ---------------------------------------------------------------------------

            1           2           3           4           5           6           7           8           9          10
           11          12          13          14          15
 ........................................................................................................................
   1    4.800       4.800       4.800       4.800       4.800       4.800       4.800       4.800       4.800       4.800    
        4.800       4.800       4.800       4.800       4.800    
   2    3.855       3.824       3.774       3.750       3.866       4.019       4.176       4.343       4.479       4.527    
        4.563       4.586       4.598       4.602       4.603    
   3    3.074       3.002       2.853       2.687       3.029       3.371       3.681       3.990       4.224       4.313    
        4.383       4.430       4.449       4.453       4.453    
   4    2.516       2.404       2.095       1.246       2.336       2.907       3.334       3.742       4.042       4.167    
        4.273       4.349       4.363       4.356       4.349    
   5    2.232       2.166       2.034       1.903       2.311       2.744       3.163       3.603       3.935       4.088    
        4.240       4.379       4.344       4.306       4.287    
   6    2.184       2.164       2.144       2.189       2.430       2.757       3.132       3.556       3.889       4.057    
        4.266       4.630       4.375       4.284       4.252    
   7    2.327       2.333       2.362       2.448       2.630       2.889       3.207       3.586       3.888       4.033    
        4.182       4.321       4.286       4.249       4.230    
   8    2.626       2.642       2.685       2.771       2.916       3.118       3.374       3.685       3.936       4.050    
        4.152       4.229       4.244       4.238       4.233    
   9    3.053       3.071       3.110       3.180       3.289       3.436       3.623       3.852       4.039       4.119    
        4.188       4.238       4.261       4.268       4.270    
  10    3.584       3.597       3.626       3.673       3.743       3.836       3.949       4.083       4.189       4.237    
        4.279       4.311       4.331       4.340       4.344    
  11    4.187       4.194       4.209       4.232       4.264       4.303       4.345       4.379       4.376       4.389    
        4.409       4.427       4.441       4.449       4.452    
  12    4.576       4.579       4.585       4.593       4.604       4.615       4.622       4.617       4.570       4.559    
        4.564       4.572       4.580       4.586       4.588    
  13    4.707       4.709       4.712       4.717       4.723       4.729       4.733       4.733       4.731       4.729    
        4.732       4.736       4.740       4.743       4.745    
  14    4.840       4.841       4.842       4.844       4.846       4.849       4.852       4.856       4.866       4.870    
        4.872       4.875       4.877       4.878       4.879    
  15    4.974       4.974       4.973       4.972       4.971       4.970       4.972       4.974       4.977       4.979    
        4.981       4.982       4.983       4.984       4.984    
  16    4.877       4.871       4.859       4.843       4.827       4.820       4.833       4.855       4.878       4.898    
        4.914       4.926       4.935       4.940       4.943    
  17    4.787       4.775       4.750       4.715       4.675       4.651       4.685       4.735       4.783       4.822    
        4.853       4.875       4.891       4.901       4.906    
  18    4.711       4.692       4.653       4.592       4.508       4.425       4.521       4.620       4.698       4.757    
        4.801       4.833       4.854       4.868       4.875    
  19    4.656       4.632       4.581       4.494       4.342       4.018       4.358       4.527       4.634       4.709    
        4.763       4.802       4.828       4.845       4.853    
  20    4.627       4.601       4.547       4.462       4.348       4.243       4.366       4.499       4.605       4.685    
        4.744       4.786       4.815       4.833       4.841    

 HEAD WILL BE SAVED ON UNIT   51 AT END OF TIME STEP   60, STRESS PERIOD    2

 DRAWDOWN WILL BE SAVED ON UNIT   52 AT END OF TIME STEP   60, STRESS PERIOD    2
1
  VOLUMETRIC BUDGET FOR ENTIRE MODEL AT END OF TIME STEP   60, STRESS PERIOD   2
  ------------------------------------------------------------------------------

     CUMULATIVE VOLUMES      L**3       RATES FOR THIS TIME STEP      L**3/T
     ------------------                 ------------------------

           IN:                                      IN:
           ---                                      ---
             STORAGE =         683.3799               STORAGE =           0.0000
       CONSTANT HEAD =       43466.3750         CONSTANT HEAD =         638.5715
               WELLS =       12600.0000                 WELLS =         200.0000
       RIVER LEAKAGE =      184457.9531         RIVER LEAKAGE =         877.8941

            TOTAL IN =      241207.7031              TOTAL IN =        1716.4656

          OUT:                                     OUT:
          ----                                     ----
             STORAGE =      206934.6406               STORAGE =        1166.4666
       CONSTANT HEAD =           0.0000         CONSTANT HEAD =           0.0000
               WELLS =       33600.0000                 WELLS =         550.0000
       RIVER LEAKAGE =         673.0626         RIVER LEAKAGE =           0.0000

           TOTAL OUT =      241207.7031             TOTAL OUT =        1716.4666

            IN - OUT =           0.0000              IN - OUT =      -9.7656E-04

 PERCENT DISCREPANCY =           0.00     PERCENT DISCREPANCY =          -0.00






         TIME SUMMARY AT END OF TIME STEP   60 IN STRESS PERIOD    2
                    SECONDS     MINUTES      HOURS       DAYS        YEARS
                    -----------------------------------------------------------
   TIME STEP LENGTH  86400.      1440.0      24.000      1.0000     2.73785E-03
 STRESS PERIOD TIME 5.18400E+06  86400.      1440.0      60.000     0.16427    
         TOTAL TIME 5.27040E+06  87840.      1464.0      61.000     0.16701    
1
 
 SOLVING FOR HEAD 

 OUTPUT CONTROL FOR STRESS PERIOD    2   TIME STEP   61
    SAVE HEAD FOR ALL LAYERS
    SAVE DRAWDOWN FOR ALL LAYERS
    SAVE BUDGET
    PRINT HEAD FOR ALL LAYERS
    PRINT BUDGET
 UBDSV1 SAVING "         STORAGE" ON UNIT   1 AT TIME STEP 61, STRESS PERIOD   2
 UBDSV2 SAVING "   CONSTANT HEAD" ON UNIT   1 AT TIME STEP 61, STRESS PERIOD   2
 UBDSV1 SAVING "FLOW RIGHT FACE " ON UNIT   1 AT TIME STEP 61, STRESS PERIOD   2
 UBDSV1 SAVING "FLOW FRONT FACE " ON UNIT   1 AT TIME STEP 61, STRESS PERIOD   2
1
              HEAD IN LAYER   1 AT END OF TIME STEP  61 IN STRESS PERIOD    2
  ---------------------------------------------------------------------------

            1           2           3           4           5           6           7           8           9          10
           11          12          13          14          15
 ........................................................................................................................
   1    4.830       4.830       4.830       4.830       4.830       4.830       4.830       4.830       4.830       4.830    
        4.830       4.830       4.830       4.830       4.830    
   2    3.887       3.856       3.806       3.782       3.898       4.051       4.207       4.374       4.510       4.558    
        4.593       4.617       4.628       4.632       4.633    
   3    3.108       3.035       2.887       2.721       3.062       3.405       3.714       4.022       4.255       4.345    
        4.414       4.461       4.480       4.484       4.484    
   4    2.551       2.439       2.130       1.282       2.371       2.942       3.368       3.775       4.074       4.198    
        4.304       4.380       4.393       4.387       4.380    
   5    2.268       2.202       2.070       1.939       2.347       2.779       3.198       3.636       3.966       4.119    
        4.270       4.410       4.374       4.336       4.317    
   6    2.220       2.200       2.180       2.224       2.465       2.792       3.165       3.589       3.920       4.088    
        4.296       4.659       4.404       4.313       4.281    
   7    2.361       2.367       2.396       2.482       2.664       2.922       3.240       3.617       3.917       4.062    
        4.211       4.349       4.314       4.277       4.258    
   8    2.656       2.673       2.716       2.802       2.947       3.148       3.404       3.714       3.963       4.076    
        4.178       4.255       4.269       4.264       4.258    
   9    3.079       3.097       3.136       3.207       3.315       3.462       3.649       3.877       4.062       4.143    
        4.211       4.261       4.284       4.291       4.293    
  10    3.603       3.616       3.645       3.693       3.763       3.855       3.969       4.103       4.209       4.256    
        4.298       4.331       4.350       4.360       4.363    
  11    4.199       4.206       4.221       4.244       4.276       4.316       4.358       4.392       4.391       4.404    
        4.424       4.443       4.456       4.464       4.468    
  12    4.582       4.585       4.591       4.600       4.611       4.622       4.629       4.625       4.580       4.570    
        4.575       4.584       4.592       4.597       4.600    
  13    4.711       4.713       4.716       4.722       4.728       4.734       4.738       4.738       4.737       4.736    
        4.738       4.743       4.747       4.750       4.752    
  14    4.842       4.843       4.844       4.846       4.848       4.851       4.854       4.858       4.869       4.873    
        4.875       4.878       4.880       4.882       4.883    
  15    4.975       4.974       4.973       4.972       4.971       4.971       4.972       4.974       4.977       4.979    
        4.981       4.982       4.983       4.984       4.984    
  16    4.878       4.872       4.860       4.844       4.828       4.821       4.834       4.856       4.879       4.899    
        4.915       4.927       4.936       4.941       4.944    
  17    4.789       4.776       4.752       4.716       4.676       4.652       4.686       4.737       4.785       4.824    
        4.855       4.877       4.893       4.903       4.907    
  18    4.713       4.694       4.655       4.594       4.510       4.427       4.524       4.622       4.700       4.760    
        4.803       4.835       4.857       4.870       4.877    
  19    4.659       4.635       4.583       4.496       4.344       4.021       4.361       4.530       4.637       4.712    
        4.766       4.805       4.831       4.848       4.855    
  20    4.630       4.604       4.550       4.465       4.351       4.246       4.369       4.501       4.608       4.688    
        4.747       4.789       4.818       4.836       4.844    

 HEAD WILL BE SAVED ON UNIT   51 AT END OF TIME STEP   61, STRESS PERIOD    2

 DRAWDOWN WILL BE SAVED ON UNIT   52 AT END OF TIME STEP   61, STRESS PERIOD    2
1
  VOLUMETRIC BUDGET FOR ENTIRE MODEL AT END OF TIME STEP   61, STRESS PERIOD   2
  ------------------------------------------------------------------------------

     CUMULATIVE VOLUMES      L**3       RATES FOR THIS TIME STEP      L**3/T
     ------------------                 ------------------------

           IN:                                      IN:
           ---                                      ---
             STORAGE =         683.3799               STORAGE =           0.0000
       CONSTANT HEAD =       44103.8867         CONSTANT HEAD =         637.5103
               WELLS =       12800.0000                 WELLS =         200.0000
       RIVER LEAKAGE =      185322.7500         RIVER LEAKAGE =         864.7965

            TOTAL IN =      242910.0156              TOTAL IN =        1702.3069

          OUT:                                     OUT:
          ----                                     ----
             STORAGE =      208086.9531               STORAGE =        1152.3065
       CONSTANT HEAD =           0.0000         CONSTANT HEAD =           0.0000
               WELLS =       34150.0000                 WELLS =         550.0000
       RIVER LEAKAGE =         673.0626         RIVER LEAKAGE =           0.0000

           TOTAL OUT =      242910.0156             TOTAL OUT =        1702.3065

            IN - OUT =           0.0000              IN - OUT =       3.6621E-04

 PERCENT DISCREPANCY =           0.00     PERCENT DISCREPANCY =           0.00






         TIME SUMMARY AT END OF TIME STEP   61 IN STRESS PERIOD    2
                    SECONDS     MINUTES      HOURS       DAYS        YEARS
                    -----------------------------------------------------------
   TIME STEP LENGTH  86400.      1440.0      24.000      1.0000     2.73785E-03
 STRESS PERIOD TIME 5.27040E+06  87840.      1464.0      61.000     0.16701    
         TOTAL TIME 5.35680E+06  89280.      1488.0      62.000     0.16975    
1
 
 SOLVING FOR HEAD 

 OUTPUT CONTROL FOR STRESS PERIOD    2   TIME STEP   62
    SAVE HEAD FOR ALL LAYERS
    SAVE DRAWDOWN FOR ALL LAYERS
    SAVE BUDGET
    PRINT HEAD FOR ALL LAYERS
    PRINT BUDGET
 UBDSV1 SAVING "         STORAGE" ON UNIT   1 AT TIME STEP 62, STRESS PERIOD   2
 UBDSV2 SAVING "   CONSTANT HEAD" ON UNIT   1 AT TIME STEP 62, STRESS PERIOD   2
 UBDSV1 SAVING "FLOW RIGHT FACE " ON UNIT   1 AT TIME STEP 62, STRESS PERIOD   2
 UBDSV1 SAVING "FLOW FRONT FACE " ON UNIT   1 AT TIME STEP 62, STRESS PERIOD   2
1
              HEAD IN LAYER   1 AT END OF TIME STEP  62 IN STRESS PERIOD    2
  ---------------------------------------------------------------------------

            1           2           3           4           5           6           7           8           9          10
           11          12          13          14          15
 ........................................................................................................................
   1    4.860       4.860       4.860       4.860       4.860       4.860       4.860       4.860       4.860       4.860    
        4.860       4.860       4.860       4.860       4.860    
   2    3.919       3.888       3.838       3.814       3.930       4.082       4.239       4.405       4.541       4.589    
        4.624       4.647       4.659       4.663       4.664    
   3    3.141       3.069       2.920       2.755       3.096       3.438       3.746       4.054       4.286       4.376    
        4.445       4.492       4.511       4.515       4.514    
   4    2.586       2.474       2.166       1.318       2.406       2.976       3.402       3.808       4.106       4.230    
        4.335       4.411       4.424       4.417       4.411    
   5    2.303       2.237       2.106       1.975       2.382       2.814       3.232       3.668       3.998       4.150    
        4.301       4.440       4.404       4.366       4.347    
   6    2.255       2.235       2.215       2.260       2.500       2.827       3.199       3.621       3.950       4.117    
        4.325       4.688       4.433       4.342       4.310    
   7    2.394       2.401       2.430       2.515       2.698       2.955       3.272       3.647       3.946       4.090    
        4.238       4.377       4.342       4.304       4.285    
   8    2.687       2.704       2.746       2.832       2.977       3.178       3.433       3.742       3.990       4.102    
        4.204       4.280       4.295       4.289       4.284    
   9    3.105       3.122       3.162       3.232       3.341       3.488       3.674       3.901       4.085       4.165    
        4.234       4.284       4.307       4.314       4.315    
  10    3.622       3.636       3.664       3.712       3.782       3.875       3.988       4.122       4.228       4.275    
        4.317       4.350       4.370       4.379       4.383    
  11    4.210       4.217       4.232       4.256       4.288       4.327       4.370       4.406       4.405       4.419    
        4.439       4.458       4.472       4.480       4.483    
  12    4.588       4.591       4.597       4.606       4.617       4.629       4.636       4.633       4.589       4.580    
        4.586       4.595       4.603       4.608       4.611    
  13    4.715       4.717       4.721       4.726       4.732       4.738       4.743       4.744       4.743       4.742    
        4.745       4.749       4.754       4.757       4.758    
  14    4.845       4.845       4.847       4.848       4.851       4.854       4.857       4.861       4.872       4.876    
        4.879       4.881       4.883       4.885       4.886    
  15    4.975       4.975       4.974       4.972       4.971       4.971       4.972       4.975       4.978       4.980    
        4.981       4.983       4.984       4.984       4.985    
  16    4.879       4.873       4.861       4.845       4.829       4.822       4.835       4.857       4.880       4.900    
        4.916       4.929       4.937       4.942       4.945    
  17    4.790       4.778       4.753       4.718       4.678       4.654       4.688       4.739       4.786       4.826    
        4.856       4.879       4.894       4.904       4.909    
  18    4.715       4.697       4.658       4.596       4.512       4.429       4.526       4.624       4.703       4.762    
        4.805       4.837       4.859       4.873       4.879    
  19    4.661       4.637       4.586       4.499       4.347       4.023       4.363       4.532       4.640       4.715    
        4.769       4.807       4.834       4.850       4.858    
  20    4.633       4.607       4.553       4.468       4.354       4.249       4.371       4.504       4.611       4.691    
        4.750       4.791       4.820       4.838       4.847    

 HEAD WILL BE SAVED ON UNIT   51 AT END OF TIME STEP   62, STRESS PERIOD    2

 DRAWDOWN WILL BE SAVED ON UNIT   52 AT END OF TIME STEP   62, STRESS PERIOD    2
1
  VOLUMETRIC BUDGET FOR ENTIRE MODEL AT END OF TIME STEP   62, STRESS PERIOD   2
  ------------------------------------------------------------------------------

     CUMULATIVE VOLUMES      L**3       RATES FOR THIS TIME STEP      L**3/T
     ------------------                 ------------------------

           IN:                                      IN:
           ---                                      ---
             STORAGE =         683.3799               STORAGE =           0.0000
       CONSTANT HEAD =       44740.4414         CONSTANT HEAD =         636.5538
               WELLS =       13000.0000                 WELLS =         200.0000
       RIVER LEAKAGE =      186174.8750         RIVER LEAKAGE =         852.1175

            TOTAL IN =      244598.6875              TOTAL IN =        1688.6713

          OUT:                                     OUT:
          ----                                     ----
             STORAGE =      209225.6250               STORAGE =        1138.6738
       CONSTANT HEAD =           0.0000         CONSTANT HEAD =           0.0000
               WELLS =       34700.0000                 WELLS =         550.0000
       RIVER LEAKAGE =         673.0626         RIVER LEAKAGE =           0.0000

           TOTAL OUT =      244598.6875             TOTAL OUT =        1688.6738

            IN - OUT =           0.0000              IN - OUT =      -2.5635E-03

 PERCENT DISCREPANCY =           0.00     PERCENT DISCREPANCY =          -0.00






         TIME SUMMARY AT END OF TIME STEP   62 IN STRESS PERIOD    2
                    SECONDS     MINUTES      HOURS       DAYS        YEARS
                    -----------------------------------------------------------
   TIME STEP LENGTH  86400.      1440.0      24.000      1.0000     2.73785E-03
 STRESS PERIOD TIME 5.35680E+06  89280.      1488.0      62.000     0.16975    
         TOTAL TIME 5.44320E+06  90720.      1512.0      63.000     0.17248    
1
 
 SOLVING FOR HEAD 

 OUTPUT CONTROL FOR STRESS PERIOD    2   TIME STEP   63
    SAVE HEAD FOR ALL LAYERS
    SAVE DRAWDOWN FOR ALL LAYERS
    SAVE BUDGET
    PRINT HEAD FOR ALL LAYERS
    PRINT BUDGET
 UBDSV1 SAVING "         STORAGE" ON UNIT   1 AT TIME STEP 63, STRESS PERIOD   2
 UBDSV2 SAVING "   CONSTANT HEAD" ON UNIT   1 AT TIME STEP 63, STRESS PERIOD   2
 UBDSV1 SAVING "FLOW RIGHT FACE " ON UNIT   1 AT TIME STEP 63, STRESS PERIOD   2
 UBDSV1 SAVING "FLOW FRONT FACE " ON UNIT   1 AT TIME STEP 63, STRESS PERIOD   2
1
              HEAD IN LAYER   1 AT END OF TIME STEP  63 IN STRESS PERIOD    2
  ---------------------------------------------------------------------------

            1           2           3           4           5           6           7           8           9          10
           11          12          13          14          15
 ........................................................................................................................
   1    4.890       4.890       4.890       4.890       4.890       4.890       4.890       4.890       4.890       4.890    
        4.890       4.890       4.890       4.890       4.890    
   2    3.950       3.920       3.870       3.846       3.962       4.114       4.270       4.436       4.571       4.619    
        4.654       4.677       4.689       4.693       4.694    
   3    3.175       3.103       2.954       2.789       3.129       3.471       3.779       4.086       4.318       4.406    
        4.475       4.522       4.541       4.545       4.545    
   4    2.620       2.509       2.201       1.354       2.441       3.010       3.436       3.840       4.137       4.261    
        4.365       4.441       4.454       4.447       4.441    
   5    2.338       2.272       2.141       2.011       2.418       2.848       3.266       3.701       4.029       4.180    
        4.331       4.470       4.434       4.396       4.377    
   6    2.290       2.270       2.250       2.295       2.535       2.861       3.232       3.652       3.980       4.147    
        4.355       4.717       4.462       4.371       4.339    
   7    2.428       2.434       2.463       2.549       2.731       2.988       3.303       3.677       3.974       4.118    
        4.266       4.404       4.369       4.331       4.312    
   8    2.717       2.734       2.777       2.862       3.007       3.208       3.462       3.769       4.016       4.128    
        4.229       4.305       4.320       4.314       4.309    
   9    3.130       3.148       3.188       3.258       3.366       3.513       3.699       3.925       4.108       4.188    
        4.256       4.306       4.329       4.336       4.338    
  10    3.641       3.655       3.683       3.731       3.802       3.894       4.007       4.141       4.247       4.294    
        4.336       4.369       4.389       4.398       4.402    
  11    4.221       4.229       4.243       4.267       4.299       4.339       4.382       4.418       4.419       4.434    
        4.454       4.473       4.487       4.495       4.499    
  12    4.594       4.597       4.603       4.612       4.624       4.635       4.643       4.640       4.599       4.591    
        4.597       4.606       4.614       4.620       4.622    
  13    4.720       4.721       4.725       4.730       4.737       4.743       4.748       4.749       4.748       4.748    
        4.751       4.756       4.760       4.764       4.765    
  14    4.847       4.848       4.849       4.851       4.853       4.856       4.860       4.864       4.875       4.879    
        4.882       4.884       4.886       4.888       4.889    
  15    4.975       4.975       4.974       4.973       4.972       4.971       4.973       4.975       4.978       4.980    
        4.982       4.983       4.984       4.985       4.985    
  16    4.880       4.874       4.862       4.846       4.830       4.823       4.836       4.858       4.881       4.901    
        4.917       4.929       4.938       4.943       4.946    
  17    4.792       4.779       4.755       4.719       4.679       4.656       4.690       4.740       4.788       4.827    
        4.858       4.880       4.896       4.906       4.911    
  18    4.717       4.698       4.659       4.598       4.514       4.431       4.528       4.626       4.705       4.764    
        4.807       4.839       4.861       4.875       4.881    
  19    4.663       4.639       4.588       4.501       4.349       4.026       4.365       4.535       4.642       4.717    
        4.771       4.809       4.836       4.852       4.860    
  20    4.635       4.609       4.555       4.470       4.356       4.251       4.374       4.507       4.613       4.693    
        4.752       4.794       4.823       4.841       4.849    

 HEAD WILL BE SAVED ON UNIT   51 AT END OF TIME STEP   63, STRESS PERIOD    2

 DRAWDOWN WILL BE SAVED ON UNIT   52 AT END OF TIME STEP   63, STRESS PERIOD    2
1
  VOLUMETRIC BUDGET FOR ENTIRE MODEL AT END OF TIME STEP   63, STRESS PERIOD   2
  ------------------------------------------------------------------------------

     CUMULATIVE VOLUMES      L**3       RATES FOR THIS TIME STEP      L**3/T
     ------------------                 ------------------------

           IN:                                      IN:
           ---                                      ---
             STORAGE =         683.3799               STORAGE =           0.0000
       CONSTANT HEAD =       45376.1406         CONSTANT HEAD =         635.6991
               WELLS =       13200.0000                 WELLS =         200.0000
       RIVER LEAKAGE =      187014.7031         RIVER LEAKAGE =         839.8334

            TOTAL IN =      246274.2188              TOTAL IN =        1675.5325

          OUT:                                     OUT:
          ----                                     ----
             STORAGE =      210351.1562               STORAGE =        1125.5334
       CONSTANT HEAD =           0.0000         CONSTANT HEAD =           0.0000
               WELLS =       35250.0000                 WELLS =         550.0000
       RIVER LEAKAGE =         673.0626         RIVER LEAKAGE =           0.0000

           TOTAL OUT =      246274.2188             TOTAL OUT =        1675.5334

            IN - OUT =           0.0000              IN - OUT =      -9.7656E-04

 PERCENT DISCREPANCY =           0.00     PERCENT DISCREPANCY =          -0.00






         TIME SUMMARY AT END OF TIME STEP   63 IN STRESS PERIOD    2
                    SECONDS     MINUTES      HOURS       DAYS        YEARS
                    -----------------------------------------------------------
   TIME STEP LENGTH  86400.      1440.0      24.000      1.0000     2.73785E-03
 STRESS PERIOD TIME 5.44320E+06  90720.      1512.0      63.000     0.17248    
         TOTAL TIME 5.52960E+06  92160.      1536.0      64.000     0.17522    
1
 
 SOLVING FOR HEAD 

 OUTPUT CONTROL FOR STRESS PERIOD    2   TIME STEP   64
    SAVE HEAD FOR ALL LAYERS
    SAVE DRAWDOWN FOR ALL LAYERS
    SAVE BUDGET
    PRINT HEAD FOR ALL LAYERS
    PRINT BUDGET
 UBDSV1 SAVING "         STORAGE" ON UNIT   1 AT TIME STEP 64, STRESS PERIOD   2
 UBDSV2 SAVING "   CONSTANT HEAD" ON UNIT   1 AT TIME STEP 64, STRESS PERIOD   2
 UBDSV1 SAVING "FLOW RIGHT FACE " ON UNIT   1 AT TIME STEP 64, STRESS PERIOD   2
 UBDSV1 SAVING "FLOW FRONT FACE " ON UNIT   1 AT TIME STEP 64, STRESS PERIOD   2
1
              HEAD IN LAYER   1 AT END OF TIME STEP  64 IN STRESS PERIOD    2
  ---------------------------------------------------------------------------

            1           2           3           4           5           6           7           8           9          10
           11          12          13          14          15
 ........................................................................................................................
   1    4.920       4.920       4.920       4.920       4.920       4.920       4.920       4.920       4.920       4.920    
        4.920       4.920       4.920       4.920       4.920    
   2    3.982       3.952       3.902       3.878       3.993       4.146       4.302       4.467       4.602       4.650    
        4.684       4.708       4.719       4.723       4.724    
   3    3.208       3.136       2.988       2.822       3.163       3.505       3.812       4.118       4.349       4.437    
        4.506       4.553       4.571       4.575       4.575    
   4    2.655       2.544       2.236       1.389       2.476       3.045       3.469       3.872       4.168       4.291    
        4.396       4.471       4.484       4.478       4.471    
   5    2.373       2.308       2.176       2.046       2.453       2.883       3.299       3.733       4.060       4.211    
        4.361       4.499       4.464       4.425       4.406    
   6    2.324       2.305       2.285       2.330       2.570       2.895       3.265       3.684       4.010       4.176    
        4.383       4.745       4.490       4.399       4.367    
   7    2.461       2.467       2.496       2.582       2.764       3.020       3.335       3.707       4.002       4.146    
        4.293       4.431       4.396       4.358       4.339    
   8    2.747       2.764       2.806       2.892       3.037       3.237       3.490       3.796       4.042       4.153    
        4.254       4.330       4.345       4.339       4.333    
   9    3.155       3.173       3.213       3.283       3.391       3.538       3.723       3.948       4.131       4.210    
        4.279       4.328       4.351       4.358       4.360    
  10    3.660       3.673       3.702       3.750       3.820       3.913       4.026       4.160       4.265       4.313    
        4.355       4.388       4.407       4.417       4.421    
  11    4.232       4.240       4.255       4.278       4.311       4.351       4.394       4.431       4.433       4.449    
        4.469       4.488       4.502       4.510       4.514    
  12    4.600       4.603       4.609       4.618       4.630       4.642       4.650       4.648       4.608       4.601    
        4.607       4.617       4.625       4.631       4.633    
  13    4.724       4.726       4.729       4.735       4.741       4.747       4.752       4.754       4.754       4.754    
        4.758       4.763       4.767       4.770       4.772    
  14    4.849       4.850       4.851       4.853       4.856       4.859       4.862       4.867       4.877       4.881    
        4.884       4.887       4.889       4.891       4.892    
  15    4.976       4.975       4.974       4.973       4.972       4.972       4.973       4.975       4.978       4.980    
        4.982       4.984       4.984       4.985       4.985    
  16    4.881       4.875       4.863       4.847       4.831       4.824       4.836       4.859       4.882       4.902    
        4.918       4.930       4.939       4.944       4.947    
  17    4.793       4.781       4.756       4.721       4.681       4.657       4.691       4.742       4.789       4.829    
        4.859       4.882       4.897       4.907       4.912    
  18    4.719       4.700       4.661       4.600       4.516       4.433       4.530       4.628       4.706       4.765    
        4.809       4.841       4.863       4.876       4.883    
  19    4.665       4.641       4.590       4.503       4.351       4.028       4.367       4.537       4.644       4.719    
        4.773       4.812       4.838       4.854       4.862    
  20    4.637       4.611       4.557       4.472       4.358       4.254       4.376       4.509       4.615       4.696    
        4.754       4.796       4.825       4.843       4.852    

 HEAD WILL BE SAVED ON UNIT   51 AT END OF TIME STEP   64, STRESS PERIOD    2

 DRAWDOWN WILL BE SAVED ON UNIT   52 AT END OF TIME STEP   64, STRESS PERIOD    2
1
  VOLUMETRIC BUDGET FOR ENTIRE MODEL AT END OF TIME STEP   64, STRESS PERIOD   2
  ------------------------------------------------------------------------------

     CUMULATIVE VOLUMES      L**3       RATES FOR THIS TIME STEP      L**3/T
     ------------------                 ------------------------

           IN:                                      IN:
           ---                                      ---
             STORAGE =         683.3799               STORAGE =           0.0000
       CONSTANT HEAD =       46011.0859         CONSTANT HEAD =         634.9459
               WELLS =       13400.0000                 WELLS =         200.0000
       RIVER LEAKAGE =      187842.6250         RIVER LEAKAGE =         827.9180

            TOTAL IN =      247937.0938              TOTAL IN =        1662.8639

          OUT:                                     OUT:
          ----                                     ----
             STORAGE =      211464.0156               STORAGE =        1112.8669
       CONSTANT HEAD =           0.0000         CONSTANT HEAD =           0.0000
               WELLS =       35800.0000                 WELLS =         550.0000
       RIVER LEAKAGE =         673.0626         RIVER LEAKAGE =           0.0000

           TOTAL OUT =      247937.0781             TOTAL OUT =        1662.8669

            IN - OUT =       1.5625E-02              IN - OUT =      -3.0518E-03

 PERCENT DISCREPANCY =           0.00     PERCENT DISCREPANCY =          -0.00






         TIME SUMMARY AT END OF TIME STEP   64 IN STRESS PERIOD    2
                    SECONDS     MINUTES      HOURS       DAYS        YEARS
                    -----------------------------------------------------------
   TIME STEP LENGTH  86400.      1440.0      24.000      1.0000     2.73785E-03
 STRESS PERIOD TIME 5.52960E+06  92160.      1536.0      64.000     0.17522    
         TOTAL TIME 5.61600E+06  93600.      1560.0      65.000     0.17796    
1
 
 SOLVING FOR HEAD 

 OUTPUT CONTROL FOR STRESS PERIOD    2   TIME STEP   65
    SAVE HEAD FOR ALL LAYERS
    SAVE DRAWDOWN FOR ALL LAYERS
    SAVE BUDGET
    PRINT HEAD FOR ALL LAYERS
    PRINT BUDGET
 UBDSV1 SAVING "         STORAGE" ON UNIT   1 AT TIME STEP 65, STRESS PERIOD   2
 UBDSV2 SAVING "   CONSTANT HEAD" ON UNIT   1 AT TIME STEP 65, STRESS PERIOD   2
 UBDSV1 SAVING "FLOW RIGHT FACE " ON UNIT   1 AT TIME STEP 65, STRESS PERIOD   2
 UBDSV1 SAVING "FLOW FRONT FACE " ON UNIT   1 AT TIME STEP 65, STRESS PERIOD   2
1
              HEAD IN LAYER   1 AT END OF TIME STEP  65 IN STRESS PERIOD    2
  ---------------------------------------------------------------------------

            1           2           3           4           5           6           7           8           9          10
           11          12          13          14          15
 ........................................................................................................................
   1    4.950       4.950       4.950       4.950       4.950       4.950       4.950       4.950       4.950       4.950    
        4.950       4.950       4.950       4.950       4.950    
   2    4.014       3.984       3.933       3.909       4.025       4.177       4.333       4.498       4.633       4.680    
        4.715       4.738       4.749       4.753       4.754    
   3    3.242       3.169       3.021       2.856       3.196       3.538       3.844       4.150       4.380       4.468    
        4.536       4.583       4.602       4.605       4.605    
   4    2.689       2.578       2.271       1.425       2.510       3.079       3.502       3.904       4.199       4.322    
        4.426       4.502       4.514       4.507       4.501    
   5    2.408       2.343       2.212       2.081       2.488       2.917       3.332       3.765       4.090       4.241    
        4.391       4.529       4.493       4.455       4.435    
   6    2.359       2.339       2.320       2.364       2.604       2.929       3.298       3.715       4.040       4.205    
        4.412       4.774       4.518       4.427       4.395    
   7    2.493       2.500       2.529       2.614       2.796       3.052       3.365       3.736       4.030       4.173    
        4.320       4.458       4.422       4.385       4.366    
   8    2.776       2.793       2.836       2.922       3.066       3.266       3.518       3.823       4.067       4.178    
        4.279       4.355       4.369       4.363       4.358    
   9    3.180       3.197       3.237       3.308       3.416       3.562       3.747       3.971       4.153       4.232    
        4.300       4.350       4.373       4.380       4.381    
  10    3.678       3.692       3.721       3.769       3.839       3.931       4.045       4.178       4.284       4.331    
        4.373       4.406       4.426       4.435       4.439    
  11    4.243       4.250       4.265       4.289       4.322       4.362       4.406       4.443       4.447       4.463    
        4.484       4.503       4.517       4.525       4.528    
  12    4.606       4.609       4.615       4.624       4.636       4.648       4.657       4.655       4.617       4.611    
        4.618       4.627       4.636       4.641       4.644    
  13    4.728       4.730       4.733       4.739       4.745       4.752       4.757       4.759       4.760       4.760    
        4.764       4.769       4.774       4.777       4.778    
  14    4.851       4.852       4.853       4.855       4.858       4.861       4.865       4.869       4.880       4.884    
        4.887       4.890       4.892       4.894       4.895    
  15    4.976       4.975       4.974       4.973       4.972       4.972       4.973       4.976       4.979       4.981    
        4.982       4.984       4.985       4.985       4.986    
  16    4.882       4.876       4.864       4.847       4.831       4.825       4.837       4.860       4.883       4.903    
        4.919       4.931       4.940       4.945       4.948    
  17    4.795       4.782       4.757       4.722       4.682       4.658       4.692       4.743       4.791       4.830    
        4.861       4.883       4.899       4.909       4.913    
  18    4.721       4.702       4.663       4.602       4.518       4.434       4.531       4.630       4.708       4.767    
        4.811       4.843       4.864       4.878       4.885    
  19    4.667       4.643       4.592       4.505       4.353       4.030       4.369       4.539       4.646       4.721    
        4.775       4.814       4.840       4.856       4.864    
  20    4.639       4.613       4.559       4.474       4.360       4.256       4.378       4.511       4.618       4.698    
        4.756       4.798       4.827       4.845       4.854    

 HEAD WILL BE SAVED ON UNIT   51 AT END OF TIME STEP   65, STRESS PERIOD    2

 DRAWDOWN WILL BE SAVED ON UNIT   52 AT END OF TIME STEP   65, STRESS PERIOD    2
1
  VOLUMETRIC BUDGET FOR ENTIRE MODEL AT END OF TIME STEP   65, STRESS PERIOD   2
  ------------------------------------------------------------------------------

     CUMULATIVE VOLUMES      L**3       RATES FOR THIS TIME STEP      L**3/T
     ------------------                 ------------------------

           IN:                                      IN:
           ---                                      ---
             STORAGE =         683.3799               STORAGE =           0.0000
       CONSTANT HEAD =       46645.3789         CONSTANT HEAD =         634.2917
               WELLS =       13600.0000                 WELLS =         200.0000
       RIVER LEAKAGE =      188658.9844         RIVER LEAKAGE =         816.3549

            TOTAL IN =      249587.7500              TOTAL IN =        1650.6465

          OUT:                                     OUT:
          ----                                     ----
             STORAGE =      212564.6562               STORAGE =        1100.6482
       CONSTANT HEAD =           0.0000         CONSTANT HEAD =           0.0000
               WELLS =       36350.0000                 WELLS =         550.0000
       RIVER LEAKAGE =         673.0626         RIVER LEAKAGE =           0.0000

           TOTAL OUT =      249587.7188             TOTAL OUT =        1650.6482

            IN - OUT =       3.1250E-02              IN - OUT =      -1.7090E-03

 PERCENT DISCREPANCY =           0.00     PERCENT DISCREPANCY =          -0.00






         TIME SUMMARY AT END OF TIME STEP   65 IN STRESS PERIOD    2
                    SECONDS     MINUTES      HOURS       DAYS        YEARS
                    -----------------------------------------------------------
   TIME STEP LENGTH  86400.      1440.0      24.000      1.0000     2.73785E-03
 STRESS PERIOD TIME 5.61600E+06  93600.      1560.0      65.000     0.17796    
         TOTAL TIME 5.70240E+06  95040.      1584.0      66.000     0.18070    
1
 
 SOLVING FOR HEAD 

 OUTPUT CONTROL FOR STRESS PERIOD    2   TIME STEP   66
    SAVE HEAD FOR ALL LAYERS
    SAVE DRAWDOWN FOR ALL LAYERS
    SAVE BUDGET
    PRINT HEAD FOR ALL LAYERS
    PRINT BUDGET
 UBDSV1 SAVING "         STORAGE" ON UNIT   1 AT TIME STEP 66, STRESS PERIOD   2
 UBDSV2 SAVING "   CONSTANT HEAD" ON UNIT   1 AT TIME STEP 66, STRESS PERIOD   2
 UBDSV1 SAVING "FLOW RIGHT FACE " ON UNIT   1 AT TIME STEP 66, STRESS PERIOD   2
 UBDSV1 SAVING "FLOW FRONT FACE " ON UNIT   1 AT TIME STEP 66, STRESS PERIOD   2
1
              HEAD IN LAYER   1 AT END OF TIME STEP  66 IN STRESS PERIOD    2
  ---------------------------------------------------------------------------

            1           2           3           4           5           6           7           8           9          10
           11          12          13          14          15
 ........................................................................................................................
   1    4.980       4.980       4.980       4.980       4.980       4.980       4.980       4.980       4.980       4.980    
        4.980       4.980       4.980       4.980       4.980    
   2    4.046       4.015       3.965       3.941       4.057       4.209       4.364       4.529       4.663       4.710    
        4.745       4.768       4.780       4.784       4.784    
   3    3.275       3.203       3.055       2.890       3.230       3.570       3.876       4.181       4.410       4.498    
        4.567       4.613       4.632       4.635       4.635    
   4    2.724       2.613       2.305       1.460       2.545       3.112       3.535       3.936       4.230       4.352    
        4.456       4.531       4.544       4.537       4.530    
   5    2.443       2.378       2.247       2.116       2.522       2.951       3.365       3.796       4.120       4.270    
        4.420       4.558       4.522       4.484       4.464    
   6    2.393       2.373       2.354       2.398       2.638       2.962       3.330       3.745       4.069       4.234    
        4.440       4.801       4.546       4.455       4.423    
   7    2.526       2.532       2.561       2.647       2.828       3.084       3.396       3.765       4.058       4.200    
        4.347       4.484       4.449       4.411       4.392    
   8    2.806       2.822       2.865       2.951       3.095       3.295       3.546       3.849       4.092       4.203    
        4.303       4.379       4.393       4.387       4.382    
   9    3.204       3.222       3.262       3.332       3.440       3.586       3.770       3.994       4.175       4.254    
        4.322       4.372       4.394       4.401       4.402    
  10    3.696       3.710       3.739       3.787       3.857       3.949       4.063       4.196       4.301       4.349    
        4.391       4.424       4.444       4.453       4.457    
  11    4.254       4.261       4.276       4.300       4.333       4.373       4.417       4.455       4.461       4.477    
        4.498       4.517       4.531       4.539       4.543    
  12    4.611       4.614       4.621       4.630       4.642       4.654       4.664       4.663       4.626       4.620    
        4.628       4.638       4.646       4.652       4.655    
  13    4.732       4.734       4.737       4.743       4.749       4.756       4.762       4.764       4.765       4.766    
        4.770       4.775       4.780       4.783       4.785    
  14    4.853       4.854       4.856       4.858       4.860       4.863       4.867       4.872       4.882       4.887    
        4.890       4.893       4.895       4.897       4.898    
  15    4.976       4.976       4.975       4.973       4.972       4.972       4.974       4.976       4.979       4.981    
        4.983       4.984       4.985       4.986       4.986    
  16    4.883       4.876       4.864       4.848       4.832       4.825       4.838       4.860       4.884       4.904    
        4.920       4.932       4.941       4.946       4.949    
  17    4.796       4.783       4.759       4.723       4.683       4.659       4.693       4.744       4.792       4.831    
        4.862       4.884       4.900       4.910       4.915    
  18    4.722       4.703       4.664       4.603       4.519       4.436       4.533       4.632       4.710       4.769    
        4.813       4.844       4.866       4.880       4.886    
  19    4.669       4.645       4.594       4.507       4.355       4.032       4.371       4.541       4.648       4.723    
        4.777       4.815       4.842       4.858       4.866    
  20    4.641       4.615       4.561       4.476       4.362       4.258       4.380       4.513       4.620       4.700    
        4.758       4.800       4.829       4.847       4.856    

 HEAD WILL BE SAVED ON UNIT   51 AT END OF TIME STEP   66, STRESS PERIOD    2

 DRAWDOWN WILL BE SAVED ON UNIT   52 AT END OF TIME STEP   66, STRESS PERIOD    2
1
  VOLUMETRIC BUDGET FOR ENTIRE MODEL AT END OF TIME STEP   66, STRESS PERIOD   2
  ------------------------------------------------------------------------------

     CUMULATIVE VOLUMES      L**3       RATES FOR THIS TIME STEP      L**3/T
     ------------------                 ------------------------

           IN:                                      IN:
           ---                                      ---
             STORAGE =         683.3799               STORAGE =           0.0000
       CONSTANT HEAD =       47279.1133         CONSTANT HEAD =         633.7358
               WELLS =       13800.0000                 WELLS =         200.0000
       RIVER LEAKAGE =      189464.1094         RIVER LEAKAGE =         805.1173

            TOTAL IN =      251226.5938              TOTAL IN =        1638.8531

          OUT:                                     OUT:
          ----                                     ----
             STORAGE =      213653.5156               STORAGE =        1088.8538
       CONSTANT HEAD =           0.0000         CONSTANT HEAD =           0.0000
               WELLS =       36900.0000                 WELLS =         550.0000
       RIVER LEAKAGE =         673.0626         RIVER LEAKAGE =           0.0000

           TOTAL OUT =      251226.5781             TOTAL OUT =        1638.8538

            IN - OUT =       1.5625E-02              IN - OUT =      -6.1035E-04

 PERCENT DISCREPANCY =           0.00     PERCENT DISCREPANCY =          -0.00






         TIME SUMMARY AT END OF TIME STEP   66 IN STRESS PERIOD    2
                    SECONDS     MINUTES      HOURS       DAYS        YEARS
                    -----------------------------------------------------------
   TIME STEP LENGTH  86400.      1440.0      24.000      1.0000     2.73785E-03
 STRESS PERIOD TIME 5.70240E+06  95040.      1584.0      66.000     0.18070    
         TOTAL TIME 5.78880E+06  96480.      1608.0      67.000     0.18344    
1
 
 SOLVING FOR HEAD 

 OUTPUT CONTROL FOR STRESS PERIOD    2   TIME STEP   67
    SAVE HEAD FOR ALL LAYERS
    SAVE DRAWDOWN FOR ALL LAYERS
    SAVE BUDGET
    PRINT HEAD FOR ALL LAYERS
    PRINT BUDGET
 UBDSV1 SAVING "         STORAGE" ON UNIT   1 AT TIME STEP 67, STRESS PERIOD   2
 UBDSV2 SAVING "   CONSTANT HEAD" ON UNIT   1 AT TIME STEP 67, STRESS PERIOD   2
 UBDSV1 SAVING "FLOW RIGHT FACE " ON UNIT   1 AT TIME STEP 67, STRESS PERIOD   2
 UBDSV1 SAVING "FLOW FRONT FACE " ON UNIT   1 AT TIME STEP 67, STRESS PERIOD   2
1
              HEAD IN LAYER   1 AT END OF TIME STEP  67 IN STRESS PERIOD    2
  ---------------------------------------------------------------------------

            1           2           3           4           5           6           7           8           9          10
           11          12          13          14          15
 ........................................................................................................................
   1    5.010       5.010       5.010       5.010       5.010       5.010       5.010       5.010       5.010       5.010    
        5.010       5.010       5.010       5.010       5.010    
   2    4.077       4.047       3.997       3.973       4.089       4.240       4.395       4.560       4.693       4.741    
        4.775       4.798       4.810       4.814       4.814    
   3    3.308       3.236       3.088       2.923       3.263       3.603       3.909       4.212       4.441       4.529    
        4.597       4.643       4.662       4.665       4.665    
   4    2.758       2.647       2.340       1.495       2.579       3.146       3.568       3.968       4.261       4.382    
        4.486       4.561       4.574       4.567       4.560    
   5    2.478       2.412       2.281       2.151       2.557       2.985       3.398       3.828       4.151       4.300    
        4.449       4.587       4.551       4.512       4.493    
   6    2.427       2.407       2.388       2.432       2.672       2.995       3.362       3.776       4.098       4.262    
        4.468       4.829       4.574       4.483       4.450    
   7    2.558       2.565       2.594       2.679       2.860       3.115       3.426       3.794       4.085       4.227    
        4.373       4.510       4.474       4.437       4.418    
   8    2.834       2.851       2.894       2.980       3.124       3.323       3.573       3.875       4.117       4.227    
        4.327       4.403       4.417       4.411       4.405    
   9    3.228       3.246       3.286       3.356       3.464       3.610       3.794       4.017       4.196       4.275    
        4.343       4.393       4.415       4.422       4.423    
  10    3.714       3.728       3.757       3.805       3.875       3.967       4.081       4.214       4.319       4.367    
        4.409       4.442       4.462       4.471       4.475    
  11    4.264       4.272       4.287       4.310       4.343       4.384       4.428       4.467       4.474       4.490    
        4.512       4.531       4.545       4.554       4.557    
  12    4.617       4.620       4.627       4.636       4.648       4.660       4.670       4.670       4.635       4.630    
        4.638       4.648       4.657       4.662       4.665    
  13    4.736       4.737       4.741       4.747       4.754       4.761       4.766       4.769       4.770       4.772    
        4.776       4.781       4.786       4.789       4.791    
  14    4.855       4.856       4.858       4.860       4.862       4.866       4.870       4.874       4.885       4.890    
        4.893       4.896       4.898       4.900       4.901    
  15    4.976       4.976       4.975       4.974       4.973       4.972       4.974       4.976       4.979       4.981    
        4.983       4.984       4.985       4.986       4.986    
  16    4.883       4.877       4.865       4.849       4.833       4.826       4.839       4.861       4.884       4.905    
        4.921       4.933       4.941       4.947       4.949    
  17    4.797       4.784       4.760       4.724       4.684       4.661       4.695       4.745       4.793       4.832    
        4.863       4.885       4.901       4.911       4.916    
  18    4.724       4.705       4.666       4.605       4.521       4.437       4.534       4.633       4.711       4.770    
        4.814       4.846       4.868       4.881       4.888    
  19    4.671       4.647       4.596       4.508       4.357       4.033       4.373       4.542       4.650       4.725    
        4.779       4.817       4.844       4.860       4.868    
  20    4.643       4.617       4.563       4.478       4.364       4.260       4.382       4.515       4.621       4.702    
        4.760       4.802       4.831       4.849       4.858    

 HEAD WILL BE SAVED ON UNIT   51 AT END OF TIME STEP   67, STRESS PERIOD    2

 DRAWDOWN WILL BE SAVED ON UNIT   52 AT END OF TIME STEP   67, STRESS PERIOD    2
1
  VOLUMETRIC BUDGET FOR ENTIRE MODEL AT END OF TIME STEP   67, STRESS PERIOD   2
  ------------------------------------------------------------------------------

     CUMULATIVE VOLUMES      L**3       RATES FOR THIS TIME STEP      L**3/T
     ------------------                 ------------------------

           IN:                                      IN:
           ---                                      ---
             STORAGE =         683.3799               STORAGE =           0.0000
       CONSTANT HEAD =       47912.3438         CONSTANT HEAD =         633.2316
               WELLS =       14000.0000                 WELLS =         200.0000
       RIVER LEAKAGE =      190258.2969         RIVER LEAKAGE =         794.1893

            TOTAL IN =      252854.0156              TOTAL IN =        1627.4209

          OUT:                                     OUT:
          ----                                     ----
             STORAGE =      214730.9375               STORAGE =        1077.4205
       CONSTANT HEAD =           0.0000         CONSTANT HEAD =           0.0000
               WELLS =       37450.0000                 WELLS =         550.0000
       RIVER LEAKAGE =         673.0626         RIVER LEAKAGE =           0.0000

           TOTAL OUT =      252854.0000             TOTAL OUT =        1627.4205

            IN - OUT =       1.5625E-02              IN - OUT =       3.6621E-04

 PERCENT DISCREPANCY =           0.00     PERCENT DISCREPANCY =           0.00






         TIME SUMMARY AT END OF TIME STEP   67 IN STRESS PERIOD    2
                    SECONDS     MINUTES      HOURS       DAYS        YEARS
                    -----------------------------------------------------------
   TIME STEP LENGTH  86400.      1440.0      24.000      1.0000     2.73785E-03
 STRESS PERIOD TIME 5.78880E+06  96480.      1608.0      67.000     0.18344    
         TOTAL TIME 5.87520E+06  97920.      1632.0      68.000     0.18617    
1
 
 SOLVING FOR HEAD 

 OUTPUT CONTROL FOR STRESS PERIOD    2   TIME STEP   68
    SAVE HEAD FOR ALL LAYERS
    SAVE DRAWDOWN FOR ALL LAYERS
    SAVE BUDGET
    PRINT HEAD FOR ALL LAYERS
    PRINT BUDGET
 UBDSV1 SAVING "         STORAGE" ON UNIT   1 AT TIME STEP 68, STRESS PERIOD   2
 UBDSV2 SAVING "   CONSTANT HEAD" ON UNIT   1 AT TIME STEP 68, STRESS PERIOD   2
 UBDSV1 SAVING "FLOW RIGHT FACE " ON UNIT   1 AT TIME STEP 68, STRESS PERIOD   2
 UBDSV1 SAVING "FLOW FRONT FACE " ON UNIT   1 AT TIME STEP 68, STRESS PERIOD   2
1
              HEAD IN LAYER   1 AT END OF TIME STEP  68 IN STRESS PERIOD    2
  ---------------------------------------------------------------------------

            1           2           3           4           5           6           7           8           9          10
           11          12          13          14          15
 ........................................................................................................................
   1    5.040       5.040       5.040       5.040       5.040       5.040       5.040       5.040       5.040       5.040    
        5.040       5.040       5.040       5.040       5.040    
   2    4.109       4.079       4.029       4.005       4.120       4.272       4.427       4.591       4.724       4.771    
        4.805       4.828       4.839       4.843       4.844    
   3    3.341       3.269       3.121       2.956       3.296       3.636       3.941       4.244       4.471       4.559    
        4.627       4.673       4.691       4.695       4.694    
   4    2.792       2.681       2.374       1.530       2.613       3.179       3.601       3.999       4.291       4.412    
        4.516       4.590       4.603       4.596       4.589    
   5    2.512       2.447       2.316       2.186       2.591       3.019       3.431       3.859       4.180       4.329    
        4.478       4.615       4.579       4.541       4.521    
   6    2.461       2.441       2.422       2.466       2.705       3.028       3.394       3.806       4.126       4.291    
        4.496       4.856       4.601       4.510       4.478    
   7    2.590       2.596       2.625       2.711       2.892       3.146       3.456       3.822       4.112       4.253    
        4.399       4.536       4.500       4.462       4.443    
   8    2.863       2.880       2.923       3.008       3.152       3.351       3.600       3.901       4.141       4.251    
        4.351       4.426       4.440       4.435       4.429    
   9    3.252       3.270       3.310       3.380       3.488       3.633       3.816       4.039       4.217       4.296    
        4.364       4.413       4.436       4.443       4.444    
  10    3.732       3.745       3.774       3.822       3.893       3.985       4.098       4.231       4.337       4.384    
        4.427       4.459       4.479       4.489       4.493    
  11    4.275       4.282       4.297       4.321       4.354       4.395       4.439       4.479       4.487       4.504    
        4.526       4.545       4.559       4.568       4.571    
  12    4.622       4.626       4.632       4.642       4.654       4.666       4.676       4.677       4.644       4.640    
        4.648       4.658       4.667       4.673       4.675    
  13    4.739       4.741       4.745       4.751       4.758       4.765       4.771       4.774       4.776       4.777    
        4.782       4.787       4.792       4.796       4.797    
  14    4.858       4.858       4.860       4.862       4.865       4.868       4.872       4.877       4.887       4.892    
        4.896       4.899       4.901       4.903       4.904    
  15    4.977       4.976       4.975       4.974       4.973       4.973       4.974       4.976       4.979       4.982    
        4.983       4.985       4.986       4.986       4.987    
  16    4.884       4.878       4.866       4.850       4.834       4.827       4.840       4.862       4.885       4.905    
        4.921       4.934       4.942       4.948       4.950    
  17    4.798       4.785       4.761       4.725       4.685       4.662       4.696       4.746       4.794       4.834    
        4.864       4.886       4.902       4.912       4.917    
  18    4.725       4.706       4.667       4.606       4.522       4.439       4.536       4.634       4.713       4.772    
        4.815       4.847       4.869       4.883       4.889    
  19    4.672       4.648       4.597       4.510       4.358       4.035       4.375       4.544       4.651       4.726    
        4.780       4.819       4.845       4.862       4.870    
  20    4.645       4.619       4.565       4.480       4.366       4.261       4.384       4.516       4.623       4.703    
        4.762       4.804       4.833       4.851       4.859    

 HEAD WILL BE SAVED ON UNIT   51 AT END OF TIME STEP   68, STRESS PERIOD    2

 DRAWDOWN WILL BE SAVED ON UNIT   52 AT END OF TIME STEP   68, STRESS PERIOD    2
1
  VOLUMETRIC BUDGET FOR ENTIRE MODEL AT END OF TIME STEP   68, STRESS PERIOD   2
  ------------------------------------------------------------------------------

     CUMULATIVE VOLUMES      L**3       RATES FOR THIS TIME STEP      L**3/T
     ------------------                 ------------------------

           IN:                                      IN:
           ---                                      ---
             STORAGE =         683.3799               STORAGE =           0.0000
       CONSTANT HEAD =       48545.0820         CONSTANT HEAD =         632.7399
               WELLS =       14200.0000                 WELLS =         200.0000
       RIVER LEAKAGE =      191041.8594         RIVER LEAKAGE =         783.5550

            TOTAL IN =      254470.3125              TOTAL IN =        1616.2949

          OUT:                                     OUT:
          ----                                     ----
             STORAGE =      215797.2344               STORAGE =        1066.2941
       CONSTANT HEAD =           0.0000         CONSTANT HEAD =           0.0000
               WELLS =       38000.0000                 WELLS =         550.0000
       RIVER LEAKAGE =         673.0626         RIVER LEAKAGE =           0.0000

           TOTAL OUT =      254470.2969             TOTAL OUT =        1616.2941

            IN - OUT =       1.5625E-02              IN - OUT =       8.5449E-04

 PERCENT DISCREPANCY =           0.00     PERCENT DISCREPANCY =           0.00






         TIME SUMMARY AT END OF TIME STEP   68 IN STRESS PERIOD    2
                    SECONDS     MINUTES      HOURS       DAYS        YEARS
                    -----------------------------------------------------------
   TIME STEP LENGTH  86400.      1440.0      24.000      1.0000     2.73785E-03
 STRESS PERIOD TIME 5.87520E+06  97920.      1632.0      68.000     0.18617    
         TOTAL TIME 5.96160E+06  99360.      1656.0      69.000     0.18891    
1
 
 SOLVING FOR HEAD 

 OUTPUT CONTROL FOR STRESS PERIOD    2   TIME STEP   69
    SAVE HEAD FOR ALL LAYERS
    SAVE DRAWDOWN FOR ALL LAYERS
    SAVE BUDGET
    PRINT HEAD FOR ALL LAYERS
    PRINT BUDGET
 UBDSV1 SAVING "         STORAGE" ON UNIT   1 AT TIME STEP 69, STRESS PERIOD   2
 UBDSV2 SAVING "   CONSTANT HEAD" ON UNIT   1 AT TIME STEP 69, STRESS PERIOD   2
 UBDSV1 SAVING "FLOW RIGHT FACE " ON UNIT   1 AT TIME STEP 69, STRESS PERIOD   2
 UBDSV1 SAVING "FLOW FRONT FACE " ON UNIT   1 AT TIME STEP 69, STRESS PERIOD   2
1
              HEAD IN LAYER   1 AT END OF TIME STEP  69 IN STRESS PERIOD    2
  ---------------------------------------------------------------------------

            1           2           3           4           5           6           7           8           9          10
           11          12          13          14          15
 ........................................................................................................................
   1    5.070       5.070       5.070       5.070       5.070       5.070       5.070       5.070       5.070       5.070    
        5.070       5.070       5.070       5.070       5.070    
   2    4.141       4.110       4.060       4.036       4.152       4.303       4.458       4.621       4.754       4.801    
        4.835       4.858       4.869       4.873       4.874    
   3    3.374       3.302       3.154       2.990       3.329       3.668       3.973       4.275       4.502       4.589    
        4.657       4.703       4.721       4.725       4.724    
   4    2.826       2.715       2.409       1.565       2.647       3.213       3.633       4.031       4.321       4.442    
        4.545       4.620       4.632       4.625       4.618    
   5    2.546       2.481       2.350       2.220       2.625       3.052       3.463       3.890       4.210       4.358    
        4.507       4.644       4.607       4.569       4.550    
   6    2.494       2.475       2.456       2.500       2.738       3.060       3.425       3.836       4.155       4.318    
        4.523       4.883       4.628       4.537       4.505    
   7    2.621       2.628       2.657       2.742       2.923       3.176       3.486       3.851       4.138       4.279    
        4.425       4.561       4.525       4.488       4.468    
   8    2.891       2.908       2.951       3.036       3.180       3.378       3.627       3.927       4.165       4.275    
        4.374       4.449       4.463       4.458       4.452    
   9    3.276       3.293       3.333       3.403       3.511       3.656       3.839       4.060       4.238       4.317    
        4.384       4.434       4.457       4.463       4.465    
  10    3.749       3.762       3.792       3.840       3.910       4.002       4.116       4.249       4.354       4.401    
        4.444       4.477       4.497       4.506       4.510    
  11    4.285       4.292       4.307       4.331       4.364       4.405       4.450       4.491       4.500       4.517    
        4.539       4.559       4.573       4.582       4.585    
  12    4.628       4.631       4.638       4.647       4.659       4.672       4.683       4.684       4.652       4.649    
        4.657       4.668       4.677       4.683       4.685    
  13    4.743       4.745       4.749       4.755       4.762       4.769       4.775       4.779       4.781       4.783    
        4.788       4.793       4.798       4.802       4.803    
  14    4.860       4.860       4.862       4.864       4.867       4.870       4.874       4.879       4.890       4.895    
        4.898       4.901       4.904       4.906       4.906    
  15    4.977       4.976       4.975       4.974       4.973       4.973       4.974       4.977       4.980       4.982    
        4.984       4.985       4.986       4.987       4.987    
  16    4.885       4.878       4.866       4.850       4.834       4.827       4.840       4.862       4.886       4.906    
        4.922       4.934       4.943       4.948       4.951    
  17    4.799       4.786       4.762       4.726       4.686       4.663       4.697       4.747       4.795       4.835    
        4.865       4.888       4.903       4.913       4.918    
  18    4.726       4.707       4.669       4.607       4.523       4.440       4.537       4.636       4.714       4.773    
        4.817       4.848       4.870       4.884       4.891    
  19    4.674       4.650       4.599       4.511       4.360       4.036       4.376       4.545       4.653       4.728    
        4.782       4.820       4.847       4.863       4.871    
  20    4.646       4.620       4.566       4.481       4.368       4.263       4.385       4.518       4.625       4.705    
        4.764       4.806       4.834       4.852       4.861    

 HEAD WILL BE SAVED ON UNIT   51 AT END OF TIME STEP   69, STRESS PERIOD    2

 DRAWDOWN WILL BE SAVED ON UNIT   52 AT END OF TIME STEP   69, STRESS PERIOD    2
1
  VOLUMETRIC BUDGET FOR ENTIRE MODEL AT END OF TIME STEP   69, STRESS PERIOD   2
  ------------------------------------------------------------------------------

     CUMULATIVE VOLUMES      L**3       RATES FOR THIS TIME STEP      L**3/T
     ------------------                 ------------------------

           IN:                                      IN:
           ---                                      ---
             STORAGE =         683.3799               STORAGE =           0.0000
       CONSTANT HEAD =       49177.4453         CONSTANT HEAD =         632.3621
               WELLS =       14400.0000                 WELLS =         200.0000
       RIVER LEAKAGE =      191815.0469         RIVER LEAKAGE =         773.1945

            TOTAL IN =      256075.8750              TOTAL IN =        1605.5566

          OUT:                                     OUT:
          ----                                     ----
             STORAGE =      216852.7969               STORAGE =        1055.5557
       CONSTANT HEAD =           0.0000         CONSTANT HEAD =           0.0000
               WELLS =       38550.0000                 WELLS =         550.0000
       RIVER LEAKAGE =         673.0626         RIVER LEAKAGE =           0.0000

           TOTAL OUT =      256075.8594             TOTAL OUT =        1605.5557

            IN - OUT =       1.5625E-02              IN - OUT =       9.7656E-04

 PERCENT DISCREPANCY =           0.00     PERCENT DISCREPANCY =           0.00






         TIME SUMMARY AT END OF TIME STEP   69 IN STRESS PERIOD    2
                    SECONDS     MINUTES      HOURS       DAYS        YEARS
                    -----------------------------------------------------------
   TIME STEP LENGTH  86400.      1440.0      24.000      1.0000     2.73785E-03
 STRESS PERIOD TIME 5.96160E+06  99360.      1656.0      69.000     0.18891    
         TOTAL TIME 6.04800E+06 1.00800E+05  1680.0      70.000     0.19165    
1
 
 SOLVING FOR HEAD 

 OUTPUT CONTROL FOR STRESS PERIOD    2   TIME STEP   70
    SAVE HEAD FOR ALL LAYERS
    SAVE DRAWDOWN FOR ALL LAYERS
    SAVE BUDGET
    PRINT HEAD FOR ALL LAYERS
    PRINT BUDGET
 UBDSV1 SAVING "         STORAGE" ON UNIT   1 AT TIME STEP 70, STRESS PERIOD   2
 UBDSV2 SAVING "   CONSTANT HEAD" ON UNIT   1 AT TIME STEP 70, STRESS PERIOD   2
 UBDSV1 SAVING "FLOW RIGHT FACE " ON UNIT   1 AT TIME STEP 70, STRESS PERIOD   2
 UBDSV1 SAVING "FLOW FRONT FACE " ON UNIT   1 AT TIME STEP 70, STRESS PERIOD   2
1
              HEAD IN LAYER   1 AT END OF TIME STEP  70 IN STRESS PERIOD    2
  ---------------------------------------------------------------------------

            1           2           3           4           5           6           7           8           9          10
           11          12          13          14          15
 ........................................................................................................................
   1    5.100       5.100       5.100       5.100       5.100       5.100       5.100       5.100       5.100       5.100    
        5.100       5.100       5.100       5.100       5.100    
   2    4.172       4.142       4.092       4.068       4.183       4.334       4.489       4.652       4.784       4.831    
        4.865       4.888       4.899       4.903       4.904    
   3    3.407       3.335       3.188       3.023       3.362       3.701       4.005       4.306       4.532       4.619    
        4.686       4.732       4.750       4.754       4.753    
   4    2.860       2.749       2.443       1.600       2.681       3.246       3.665       4.062       4.351       4.472    
        4.574       4.649       4.661       4.654       4.647    
   5    2.581       2.515       2.385       2.255       2.659       3.085       3.495       3.920       4.239       4.387    
        4.535       4.672       4.636       4.597       4.578    
   6    2.528       2.508       2.489       2.533       2.771       3.092       3.456       3.865       4.183       4.346    
        4.550       4.910       4.655       4.564       4.531    
   7    2.653       2.659       2.688       2.773       2.954       3.207       3.515       3.878       4.165       4.305    
        4.450       4.587       4.551       4.513       4.493    
   8    2.919       2.936       2.979       3.064       3.207       3.405       3.653       3.952       4.189       4.298    
        4.398       4.472       4.486       4.481       4.475    
   9    3.299       3.316       3.356       3.427       3.534       3.679       3.861       4.082       4.259       4.337    
        4.405       4.454       4.477       4.484       4.485    
  10    3.766       3.780       3.809       3.857       3.927       4.020       4.133       4.266       4.371       4.418    
        4.461       4.494       4.514       4.523       4.527    
  11    4.295       4.302       4.317       4.341       4.375       4.416       4.461       4.502       4.512       4.530    
        4.553       4.573       4.587       4.595       4.599    
  12    4.633       4.636       4.643       4.653       4.665       4.678       4.689       4.690       4.660       4.658    
        4.667       4.678       4.687       4.693       4.695    
  13    4.747       4.749       4.753       4.758       4.765       4.773       4.780       4.783       4.786       4.788    
        4.793       4.799       4.804       4.808       4.809    
  14    4.862       4.862       4.864       4.866       4.869       4.872       4.877       4.882       4.892       4.897    
        4.901       4.904       4.907       4.908       4.909    
  15    4.977       4.977       4.976       4.974       4.973       4.973       4.975       4.977       4.980       4.982    
        4.984       4.985       4.986       4.987       4.987    
  16    4.885       4.879       4.867       4.851       4.835       4.828       4.841       4.863       4.886       4.907    
        4.923       4.935       4.943       4.949       4.952    
  17    4.800       4.787       4.763       4.727       4.687       4.664       4.698       4.748       4.796       4.836    
        4.866       4.888       4.904       4.914       4.919    
  18    4.727       4.709       4.670       4.608       4.524       4.441       4.538       4.637       4.715       4.774    
        4.818       4.850       4.872       4.885       4.892    
  19    4.675       4.651       4.600       4.513       4.361       4.038       4.377       4.547       4.654       4.729    
        4.783       4.822       4.848       4.865       4.873    
  20    4.648       4.622       4.568       4.483       4.369       4.264       4.387       4.520       4.626       4.706    
        4.765       4.807       4.836       4.854       4.863    

 HEAD WILL BE SAVED ON UNIT   51 AT END OF TIME STEP   70, STRESS PERIOD    2

 DRAWDOWN WILL BE SAVED ON UNIT   52 AT END OF TIME STEP   70, STRESS PERIOD    2
1
  VOLUMETRIC BUDGET FOR ENTIRE MODEL AT END OF TIME STEP   70, STRESS PERIOD   2
  ------------------------------------------------------------------------------

     CUMULATIVE VOLUMES      L**3       RATES FOR THIS TIME STEP      L**3/T
     ------------------                 ------------------------

           IN:                                      IN:
           ---                                      ---
             STORAGE =         683.3799               STORAGE =           0.0000
       CONSTANT HEAD =       49809.5352         CONSTANT HEAD =         632.0903
               WELLS =       14600.0000                 WELLS =         200.0000
       RIVER LEAKAGE =      192578.1406         RIVER LEAKAGE =         763.0937

            TOTAL IN =      257671.0625              TOTAL IN =        1595.1841

          OUT:                                     OUT:
          ----                                     ----
             STORAGE =      217897.9844               STORAGE =        1045.1825
       CONSTANT HEAD =           0.0000         CONSTANT HEAD =           0.0000
               WELLS =       39100.0000                 WELLS =         550.0000
       RIVER LEAKAGE =         673.0626         RIVER LEAKAGE =           0.0000

           TOTAL OUT =      257671.0469             TOTAL OUT =        1595.1825

            IN - OUT =       1.5625E-02              IN - OUT =       1.5869E-03

 PERCENT DISCREPANCY =           0.00     PERCENT DISCREPANCY =           0.00






         TIME SUMMARY AT END OF TIME STEP   70 IN STRESS PERIOD    2
                    SECONDS     MINUTES      HOURS       DAYS        YEARS
                    -----------------------------------------------------------
   TIME STEP LENGTH  86400.      1440.0      24.000      1.0000     2.73785E-03
 STRESS PERIOD TIME 6.04800E+06 1.00800E+05  1680.0      70.000     0.19165    
         TOTAL TIME 6.13440E+06 1.02240E+05  1704.0      71.000     0.19439    
1
 
 SOLVING FOR HEAD 

 OUTPUT CONTROL FOR STRESS PERIOD    2   TIME STEP   71
    SAVE HEAD FOR ALL LAYERS
    SAVE DRAWDOWN FOR ALL LAYERS
    SAVE BUDGET
    PRINT HEAD FOR ALL LAYERS
    PRINT BUDGET
 UBDSV1 SAVING "         STORAGE" ON UNIT   1 AT TIME STEP 71, STRESS PERIOD   2
 UBDSV2 SAVING "   CONSTANT HEAD" ON UNIT   1 AT TIME STEP 71, STRESS PERIOD   2
 UBDSV1 SAVING "FLOW RIGHT FACE " ON UNIT   1 AT TIME STEP 71, STRESS PERIOD   2
 UBDSV1 SAVING "FLOW FRONT FACE " ON UNIT   1 AT TIME STEP 71, STRESS PERIOD   2
1
              HEAD IN LAYER   1 AT END OF TIME STEP  71 IN STRESS PERIOD    2
  ---------------------------------------------------------------------------

            1           2           3           4           5           6           7           8           9          10
           11          12          13          14          15
 ........................................................................................................................
   1    5.130       5.130       5.130       5.130       5.130       5.130       5.130       5.130       5.130       5.130    
        5.130       5.130       5.130       5.130       5.130    
   2    4.203       4.173       4.123       4.099       4.214       4.366       4.519       4.682       4.814       4.861    
        4.895       4.918       4.929       4.933       4.934    
   3    3.440       3.368       3.221       3.056       3.394       3.733       4.036       4.337       4.562       4.649    
        4.716       4.762       4.780       4.783       4.783    
   4    2.894       2.783       2.477       1.634       2.715       3.279       3.697       4.093       4.381       4.501    
        4.604       4.678       4.690       4.683       4.676    
   5    2.614       2.549       2.419       2.289       2.692       3.118       3.527       3.951       4.268       4.416    
        4.563       4.700       4.663       4.625       4.605    
   6    2.561       2.541       2.522       2.566       2.804       3.124       3.487       3.895       4.211       4.373    
        4.577       4.937       4.682       4.590       4.558    
   7    2.684       2.690       2.719       2.804       2.984       3.236       3.544       3.906       4.191       4.331    
        4.475       4.611       4.575       4.537       4.518    
   8    2.947       2.964       3.006       3.092       3.235       3.432       3.679       3.976       4.213       4.321    
        4.421       4.495       4.509       4.503       4.497    
   9    3.322       3.339       3.379       3.449       3.557       3.702       3.883       4.103       4.279       4.358    
        4.425       4.474       4.497       4.504       4.505    
  10    3.783       3.796       3.826       3.874       3.944       4.036       4.149       4.282       4.387       4.435    
        4.478       4.511       4.531       4.540       4.544    
  11    4.304       4.312       4.327       4.351       4.385       4.426       4.471       4.513       4.525       4.543    
        4.566       4.586       4.600       4.609       4.612    
  12    4.638       4.642       4.648       4.658       4.670       4.684       4.695       4.697       4.669       4.667    
        4.676       4.687       4.696       4.702       4.705    
  13    4.750       4.752       4.756       4.762       4.769       4.777       4.784       4.788       4.791       4.794    
        4.799       4.805       4.810       4.814       4.815    
  14    4.863       4.864       4.866       4.868       4.871       4.875       4.879       4.884       4.895       4.900    
        4.903       4.907       4.909       4.911       4.912    
  15    4.977       4.977       4.976       4.975       4.974       4.973       4.975       4.977       4.980       4.983    
        4.984       4.986       4.987       4.987       4.988    
  16    4.886       4.879       4.867       4.851       4.835       4.829       4.841       4.864       4.887       4.907    
        4.923       4.936       4.944       4.950       4.952    
  17    4.801       4.788       4.763       4.728       4.688       4.664       4.698       4.749       4.797       4.836    
        4.867       4.889       4.905       4.915       4.920    
  18    4.729       4.710       4.671       4.609       4.526       4.442       4.539       4.638       4.716       4.775    
        4.819       4.851       4.873       4.886       4.893    
  19    4.676       4.652       4.601       4.514       4.362       4.039       4.379       4.548       4.655       4.731    
        4.785       4.823       4.850       4.866       4.874    
  20    4.649       4.623       4.569       4.484       4.370       4.266       4.388       4.521       4.628       4.708    
        4.767       4.809       4.837       4.855       4.864    

 HEAD WILL BE SAVED ON UNIT   51 AT END OF TIME STEP   71, STRESS PERIOD    2

 DRAWDOWN WILL BE SAVED ON UNIT   52 AT END OF TIME STEP   71, STRESS PERIOD    2
1
  VOLUMETRIC BUDGET FOR ENTIRE MODEL AT END OF TIME STEP   71, STRESS PERIOD   2
  ------------------------------------------------------------------------------

     CUMULATIVE VOLUMES      L**3       RATES FOR THIS TIME STEP      L**3/T
     ------------------                 ------------------------

           IN:                                      IN:
           ---                                      ---
             STORAGE =         683.3799               STORAGE =           0.0000
       CONSTANT HEAD =       50441.4531         CONSTANT HEAD =         631.9182
               WELLS =       14800.0000                 WELLS =         200.0000
       RIVER LEAKAGE =      193331.3750         RIVER LEAKAGE =         753.2367

            TOTAL IN =      259256.2031              TOTAL IN =        1585.1548

          OUT:                                     OUT:
          ----                                     ----
             STORAGE =      218933.1406               STORAGE =        1035.1559
       CONSTANT HEAD =           0.0000         CONSTANT HEAD =           0.0000
               WELLS =       39650.0000                 WELLS =         550.0000
       RIVER LEAKAGE =         673.0626         RIVER LEAKAGE =           0.0000

           TOTAL OUT =      259256.2031             TOTAL OUT =        1585.1559

            IN - OUT =           0.0000              IN - OUT =      -1.0986E-03

 PERCENT DISCREPANCY =           0.00     PERCENT DISCREPANCY =          -0.00






         TIME SUMMARY AT END OF TIME STEP   71 IN STRESS PERIOD    2
                    SECONDS     MINUTES      HOURS       DAYS        YEARS
                    -----------------------------------------------------------
   TIME STEP LENGTH  86400.      1440.0      24.000      1.0000     2.73785E-03
 STRESS PERIOD TIME 6.13440E+06 1.02240E+05  1704.0      71.000     0.19439    
         TOTAL TIME 6.22080E+06 1.03680E+05  1728.0      72.000     0.19713    
1
 
 SOLVING FOR HEAD 

 OUTPUT CONTROL FOR STRESS PERIOD    2   TIME STEP   72
    SAVE HEAD FOR ALL LAYERS
    SAVE DRAWDOWN FOR ALL LAYERS
    SAVE BUDGET
    PRINT HEAD FOR ALL LAYERS
    PRINT BUDGET
 UBDSV1 SAVING "         STORAGE" ON UNIT   1 AT TIME STEP 72, STRESS PERIOD   2
 UBDSV2 SAVING "   CONSTANT HEAD" ON UNIT   1 AT TIME STEP 72, STRESS PERIOD   2
 UBDSV1 SAVING "FLOW RIGHT FACE " ON UNIT   1 AT TIME STEP 72, STRESS PERIOD   2
 UBDSV1 SAVING "FLOW FRONT FACE " ON UNIT   1 AT TIME STEP 72, STRESS PERIOD   2
1
              HEAD IN LAYER   1 AT END OF TIME STEP  72 IN STRESS PERIOD    2
  ---------------------------------------------------------------------------

            1           2           3           4           5           6           7           8           9          10
           11          12          13          14          15
 ........................................................................................................................
   1    5.160       5.160       5.160       5.160       5.160       5.160       5.160       5.160       5.160       5.160    
        5.160       5.160       5.160       5.160       5.160    
   2    4.235       4.205       4.155       4.131       4.246       4.397       4.550       4.713       4.844       4.891    
        4.925       4.947       4.959       4.962       4.963    
   3    3.473       3.401       3.253       3.089       3.427       3.765       4.068       4.367       4.592       4.679    
        4.746       4.791       4.809       4.813       4.812    
   4    2.928       2.817       2.511       1.669       2.748       3.312       3.729       4.123       4.411       4.530    
        4.633       4.707       4.719       4.711       4.704    
   5    2.648       2.583       2.453       2.323       2.726       3.150       3.559       3.981       4.297       4.444    
        4.591       4.728       4.691       4.652       4.633    
   6    2.594       2.574       2.555       2.599       2.836       3.156       3.518       3.924       4.238       4.400    
        4.604       4.963       4.708       4.617       4.584    
   7    2.715       2.721       2.750       2.835       3.014       3.266       3.573       3.933       4.217       4.356    
        4.500       4.636       4.600       4.562       4.543    
   8    2.974       2.991       3.034       3.119       3.262       3.459       3.705       4.001       4.236       4.344    
        4.443       4.518       4.531       4.525       4.519    
   9    3.344       3.362       3.402       3.472       3.579       3.724       3.905       4.124       4.300       4.377    
        4.445       4.494       4.516       4.523       4.524    
  10    3.800       3.813       3.842       3.891       3.961       4.053       4.166       4.299       4.404       4.452    
        4.494       4.527       4.547       4.557       4.561    
  11    4.314       4.321       4.337       4.361       4.394       4.436       4.482       4.524       4.537       4.556    
        4.579       4.599       4.614       4.622       4.626    
  12    4.643       4.647       4.653       4.663       4.676       4.690       4.701       4.704       4.677       4.676    
        4.686       4.697       4.706       4.712       4.715    
  13    4.754       4.756       4.760       4.766       4.773       4.781       4.788       4.792       4.796       4.799    
        4.805       4.811       4.816       4.819       4.821    
  14    4.865       4.866       4.868       4.870       4.873       4.877       4.881       4.886       4.897       4.902    
        4.906       4.909       4.912       4.914       4.915    
  15    4.978       4.977       4.976       4.975       4.974       4.974       4.975       4.978       4.981       4.983    
        4.985       4.986       4.987       4.988       4.988    
  16    4.886       4.880       4.868       4.852       4.836       4.829       4.842       4.864       4.887       4.908    
        4.924       4.936       4.945       4.950       4.953    
  17    4.801       4.789       4.764       4.729       4.689       4.665       4.699       4.750       4.798       4.837    
        4.868       4.890       4.906       4.916       4.921    
  18    4.730       4.711       4.672       4.610       4.527       4.443       4.540       4.639       4.717       4.776    
        4.820       4.852       4.874       4.888       4.894    
  19    4.678       4.654       4.603       4.515       4.364       4.040       4.380       4.549       4.657       4.732    
        4.786       4.824       4.851       4.867       4.875    
  20    4.650       4.624       4.570       4.486       4.372       4.267       4.389       4.522       4.629       4.709    
        4.768       4.810       4.839       4.857       4.865    

 HEAD WILL BE SAVED ON UNIT   51 AT END OF TIME STEP   72, STRESS PERIOD    2

 DRAWDOWN WILL BE SAVED ON UNIT   52 AT END OF TIME STEP   72, STRESS PERIOD    2
1
  VOLUMETRIC BUDGET FOR ENTIRE MODEL AT END OF TIME STEP   72, STRESS PERIOD   2
  ------------------------------------------------------------------------------

     CUMULATIVE VOLUMES      L**3       RATES FOR THIS TIME STEP      L**3/T
     ------------------                 ------------------------

           IN:                                      IN:
           ---                                      ---
             STORAGE =         683.3799               STORAGE =           0.0000
       CONSTANT HEAD =       51073.2930         CONSTANT HEAD =         631.8411
               WELLS =       15000.0000                 WELLS =         200.0000
       RIVER LEAKAGE =      194074.9844         RIVER LEAKAGE =         743.6147

            TOTAL IN =      260831.6562              TOTAL IN =        1575.4558

          OUT:                                     OUT:
          ----                                     ----
             STORAGE =      219958.5938               STORAGE =        1025.4553
       CONSTANT HEAD =           0.0000         CONSTANT HEAD =           0.0000
               WELLS =       40200.0000                 WELLS =         550.0000
       RIVER LEAKAGE =         673.0626         RIVER LEAKAGE =           0.0000

           TOTAL OUT =      260831.6562             TOTAL OUT =        1575.4553

            IN - OUT =           0.0000              IN - OUT =       4.8828E-04

 PERCENT DISCREPANCY =           0.00     PERCENT DISCREPANCY =           0.00






         TIME SUMMARY AT END OF TIME STEP   72 IN STRESS PERIOD    2
                    SECONDS     MINUTES      HOURS       DAYS        YEARS
                    -----------------------------------------------------------
   TIME STEP LENGTH  86400.      1440.0      24.000      1.0000     2.73785E-03
 STRESS PERIOD TIME 6.22080E+06 1.03680E+05  1728.0      72.000     0.19713    
         TOTAL TIME 6.30720E+06 1.05120E+05  1752.0      73.000     0.19986    
1
 
 SOLVING FOR HEAD 

 OUTPUT CONTROL FOR STRESS PERIOD    2   TIME STEP   73
    SAVE HEAD FOR ALL LAYERS
    SAVE DRAWDOWN FOR ALL LAYERS
    SAVE BUDGET
    PRINT HEAD FOR ALL LAYERS
    PRINT BUDGET
 UBDSV1 SAVING "         STORAGE" ON UNIT   1 AT TIME STEP 73, STRESS PERIOD   2
 UBDSV2 SAVING "   CONSTANT HEAD" ON UNIT   1 AT TIME STEP 73, STRESS PERIOD   2
 UBDSV1 SAVING "FLOW RIGHT FACE " ON UNIT   1 AT TIME STEP 73, STRESS PERIOD   2
 UBDSV1 SAVING "FLOW FRONT FACE " ON UNIT   1 AT TIME STEP 73, STRESS PERIOD   2
1
              HEAD IN LAYER   1 AT END OF TIME STEP  73 IN STRESS PERIOD    2
  ---------------------------------------------------------------------------

            1           2           3           4           5           6           7           8           9          10
           11          12          13          14          15
 ........................................................................................................................
   1    5.190       5.190       5.190       5.190       5.190       5.190       5.190       5.190       5.190       5.190    
        5.190       5.190       5.190       5.190       5.190    
   2    4.266       4.236       4.186       4.162       4.277       4.428       4.581       4.743       4.874       4.921    
        4.955       4.977       4.988       4.992       4.993    
   3    3.505       3.434       3.286       3.122       3.459       3.797       4.099       4.398       4.622       4.708    
        4.775       4.820       4.838       4.842       4.841    
   4    2.961       2.850       2.544       1.703       2.781       3.344       3.761       4.154       4.440       4.560    
        4.661       4.735       4.747       4.740       4.733    
   5    2.682       2.617       2.486       2.356       2.759       3.183       3.590       4.011       4.326       4.472    
        4.619       4.755       4.719       4.680       4.660    
   6    2.626       2.607       2.587       2.631       2.868       3.187       3.548       3.953       4.266       4.427    
        4.631       4.989       4.734       4.643       4.610    
   7    2.745       2.752       2.780       2.865       3.044       3.295       3.601       3.960       4.242       4.381    
        4.525       4.661       4.624       4.586       4.567    
   8    3.001       3.018       3.061       3.146       3.288       3.485       3.730       4.025       4.259       4.367    
        4.466       4.540       4.553       4.548       4.542    
   9    3.367       3.384       3.424       3.494       3.601       3.746       3.926       4.145       4.320       4.397    
        4.464       4.513       4.536       4.543       4.544    
  10    3.816       3.829       3.859       3.907       3.977       4.069       4.182       4.315       4.420       4.468    
        4.511       4.544       4.564       4.573       4.577    
  11    4.324       4.331       4.346       4.371       4.404       4.446       4.492       4.535       4.549       4.569    
        4.592       4.612       4.627       4.635       4.639    
  12    4.648       4.652       4.659       4.669       4.681       4.695       4.707       4.710       4.685       4.685    
        4.695       4.706       4.715       4.721       4.724    
  13    4.757       4.759       4.763       4.769       4.777       4.785       4.792       4.797       4.800       4.804    
        4.810       4.816       4.822       4.825       4.827    
  14    4.867       4.868       4.870       4.872       4.875       4.879       4.883       4.889       4.899       4.905    
        4.908       4.912       4.914       4.916       4.917    
  15    4.978       4.977       4.976       4.975       4.974       4.974       4.975       4.978       4.981       4.983    
        4.985       4.986       4.987       4.988       4.988    
  16    4.887       4.880       4.868       4.852       4.836       4.830       4.842       4.865       4.888       4.908    
        4.924       4.937       4.945       4.951       4.953    
  17    4.802       4.790       4.765       4.730       4.690       4.666       4.700       4.751       4.799       4.838    
        4.869       4.891       4.907       4.917       4.921    
  18    4.731       4.712       4.673       4.611       4.528       4.444       4.541       4.640       4.718       4.777    
        4.821       4.853       4.875       4.889       4.895    
  19    4.679       4.655       4.604       4.516       4.365       4.042       4.381       4.550       4.658       4.733    
        4.787       4.825       4.852       4.868       4.876    
  20    4.652       4.626       4.572       4.487       4.373       4.268       4.391       4.524       4.630       4.710    
        4.769       4.811       4.840       4.858       4.867    

 HEAD WILL BE SAVED ON UNIT   51 AT END OF TIME STEP   73, STRESS PERIOD    2

 DRAWDOWN WILL BE SAVED ON UNIT   52 AT END OF TIME STEP   73, STRESS PERIOD    2
1
  VOLUMETRIC BUDGET FOR ENTIRE MODEL AT END OF TIME STEP   73, STRESS PERIOD   2
  ------------------------------------------------------------------------------

     CUMULATIVE VOLUMES      L**3       RATES FOR THIS TIME STEP      L**3/T
     ------------------                 ------------------------

           IN:                                      IN:
           ---                                      ---
             STORAGE =         683.3799               STORAGE =           0.0000
       CONSTANT HEAD =       51705.1484         CONSTANT HEAD =         631.8571
               WELLS =       15200.0000                 WELLS =         200.0000
       RIVER LEAKAGE =      194809.2031         RIVER LEAKAGE =         734.2124

            TOTAL IN =      262397.7500              TOTAL IN =        1566.0696

          OUT:                                     OUT:
          ----                                     ----
             STORAGE =      220974.6562               STORAGE =        1016.0688
       CONSTANT HEAD =           0.0000         CONSTANT HEAD =           0.0000
               WELLS =       40750.0000                 WELLS =         550.0000
       RIVER LEAKAGE =         673.0626         RIVER LEAKAGE =           0.0000

           TOTAL OUT =      262397.7188             TOTAL OUT =        1566.0688

            IN - OUT =       3.1250E-02              IN - OUT =       7.3242E-04

 PERCENT DISCREPANCY =           0.00     PERCENT DISCREPANCY =           0.00






         TIME SUMMARY AT END OF TIME STEP   73 IN STRESS PERIOD    2
                    SECONDS     MINUTES      HOURS       DAYS        YEARS
                    -----------------------------------------------------------
   TIME STEP LENGTH  86400.      1440.0      24.000      1.0000     2.73785E-03
 STRESS PERIOD TIME 6.30720E+06 1.05120E+05  1752.0      73.000     0.19986    
         TOTAL TIME 6.39360E+06 1.06560E+05  1776.0      74.000     0.20260    
1
 
 SOLVING FOR HEAD 

 OUTPUT CONTROL FOR STRESS PERIOD    2   TIME STEP   74
    SAVE HEAD FOR ALL LAYERS
    SAVE DRAWDOWN FOR ALL LAYERS
    SAVE BUDGET
    PRINT HEAD FOR ALL LAYERS
    PRINT BUDGET
 UBDSV1 SAVING "         STORAGE" ON UNIT   1 AT TIME STEP 74, STRESS PERIOD   2
 UBDSV2 SAVING "   CONSTANT HEAD" ON UNIT   1 AT TIME STEP 74, STRESS PERIOD   2
 UBDSV1 SAVING "FLOW RIGHT FACE " ON UNIT   1 AT TIME STEP 74, STRESS PERIOD   2
 UBDSV1 SAVING "FLOW FRONT FACE " ON UNIT   1 AT TIME STEP 74, STRESS PERIOD   2
1
              HEAD IN LAYER   1 AT END OF TIME STEP  74 IN STRESS PERIOD    2
  ---------------------------------------------------------------------------

            1           2           3           4           5           6           7           8           9          10
           11          12          13          14          15
 ........................................................................................................................
   1    5.220       5.220       5.220       5.220       5.220       5.220       5.220       5.220       5.220       5.220    
        5.220       5.220       5.220       5.220       5.220    
   2    4.298       4.267       4.217       4.193       4.308       4.459       4.612       4.773       4.904       4.951    
        4.986       5.013       5.030       5.038       5.040    
   3    3.538       3.466       3.319       3.154       3.492       3.829       4.131       4.429       4.652       4.738    
        4.805       4.852       4.871       4.876       4.875    
   4    2.994       2.884       2.578       1.737       2.815       3.377       3.793       4.184       4.470       4.589    
        4.690       4.765       4.777       4.769       4.762    
   5    2.715       2.650       2.520       2.390       2.792       3.215       3.621       4.041       4.355       4.501    
        4.648       4.784       4.747       4.708       4.688    
   6    2.659       2.639       2.620       2.663       2.900       3.218       3.578       3.981       4.293       4.454    
        4.658       5.022       4.761       4.669       4.636    
   7    2.775       2.782       2.811       2.895       3.074       3.324       3.629       3.986       4.267       4.406    
        4.550       4.686       4.649       4.610       4.591    
   8    3.028       3.045       3.088       3.173       3.315       3.511       3.755       4.049       4.282       4.389    
        4.488       4.562       4.576       4.569       4.563    
   9    3.389       3.406       3.446       3.516       3.623       3.767       3.947       4.165       4.339       4.417    
        4.484       4.533       4.555       4.562       4.563    
  10    3.832       3.846       3.875       3.923       3.993       4.086       4.198       4.331       4.436       4.484    
        4.527       4.560       4.580       4.590       4.593    
  11    4.333       4.340       4.356       4.380       4.414       4.456       4.502       4.546       4.561       4.581    
        4.604       4.625       4.639       4.648       4.652    
  12    4.653       4.657       4.664       4.674       4.686       4.701       4.713       4.717       4.693       4.694    
        4.704       4.715       4.725       4.731       4.734    
  13    4.761       4.763       4.767       4.773       4.780       4.789       4.796       4.801       4.805       4.809    
        4.815       4.822       4.827       4.831       4.833    
  14    4.869       4.870       4.871       4.874       4.877       4.881       4.885       4.891       4.902       4.907    
        4.911       4.914       4.917       4.919       4.920    
  15    4.978       4.977       4.977       4.975       4.974       4.974       4.976       4.978       4.981       4.983    
        4.985       4.987       4.988       4.988       4.989    
  16    4.887       4.881       4.869       4.853       4.837       4.830       4.843       4.865       4.889       4.909    
        4.925       4.937       4.946       4.951       4.954    
  17    4.803       4.790       4.766       4.730       4.691       4.667       4.701       4.752       4.799       4.839    
        4.869       4.892       4.908       4.917       4.922    
  18    4.731       4.713       4.674       4.612       4.528       4.445       4.542       4.641       4.719       4.778    
        4.822       4.854       4.876       4.890       4.896    
  19    4.680       4.656       4.605       4.518       4.366       4.043       4.382       4.552       4.659       4.734    
        4.788       4.827       4.853       4.870       4.877    
  20    4.653       4.627       4.573       4.488       4.374       4.269       4.392       4.525       4.631       4.712    
        4.770       4.812       4.841       4.859       4.868    

 HEAD WILL BE SAVED ON UNIT   51 AT END OF TIME STEP   74, STRESS PERIOD    2

 DRAWDOWN WILL BE SAVED ON UNIT   52 AT END OF TIME STEP   74, STRESS PERIOD    2
1
  VOLUMETRIC BUDGET FOR ENTIRE MODEL AT END OF TIME STEP   74, STRESS PERIOD   2
  ------------------------------------------------------------------------------

     CUMULATIVE VOLUMES      L**3       RATES FOR THIS TIME STEP      L**3/T
     ------------------                 ------------------------

           IN:                                      IN:
           ---                                      ---
             STORAGE =         683.3799               STORAGE =           0.0000
       CONSTANT HEAD =       52328.1680         CONSTANT HEAD =         623.0197
               WELLS =       15400.0000                 WELLS =         200.0000
       RIVER LEAKAGE =      195534.2188         RIVER LEAKAGE =         725.0194

            TOTAL IN =      263945.7500              TOTAL IN =        1548.0391

          OUT:                                     OUT:
          ----                                     ----
             STORAGE =      221972.6875               STORAGE =         998.0379
       CONSTANT HEAD =           0.0000         CONSTANT HEAD =           0.0000
               WELLS =       41300.0000                 WELLS =         550.0000
       RIVER LEAKAGE =         673.0626         RIVER LEAKAGE =           0.0000

           TOTAL OUT =      263945.7500             TOTAL OUT =        1548.0378

            IN - OUT =           0.0000              IN - OUT =       1.2207E-03

 PERCENT DISCREPANCY =           0.00     PERCENT DISCREPANCY =           0.00






         TIME SUMMARY AT END OF TIME STEP   74 IN STRESS PERIOD    2
                    SECONDS     MINUTES      HOURS       DAYS        YEARS
                    -----------------------------------------------------------
   TIME STEP LENGTH  86400.      1440.0      24.000      1.0000     2.73785E-03
 STRESS PERIOD TIME 6.39360E+06 1.06560E+05  1776.0      74.000     0.20260    
         TOTAL TIME 6.48000E+06 1.08000E+05  1800.0      75.000     0.20534    
1
 
 SOLVING FOR HEAD 

 OUTPUT CONTROL FOR STRESS PERIOD    2   TIME STEP   75
    SAVE HEAD FOR ALL LAYERS
    SAVE DRAWDOWN FOR ALL LAYERS
    SAVE BUDGET
    PRINT HEAD FOR ALL LAYERS
    PRINT BUDGET
 UBDSV1 SAVING "         STORAGE" ON UNIT   1 AT TIME STEP 75, STRESS PERIOD   2
 UBDSV2 SAVING "   CONSTANT HEAD" ON UNIT   1 AT TIME STEP 75, STRESS PERIOD   2
 UBDSV1 SAVING "FLOW RIGHT FACE " ON UNIT   1 AT TIME STEP 75, STRESS PERIOD   2
 UBDSV1 SAVING "FLOW FRONT FACE " ON UNIT   1 AT TIME STEP 75, STRESS PERIOD   2
1
              HEAD IN LAYER   1 AT END OF TIME STEP  75 IN STRESS PERIOD    2
  ---------------------------------------------------------------------------

            1           2           3           4           5           6           7           8           9          10
           11          12          13          14          15
 ........................................................................................................................
   1    5.250       5.250       5.250       5.250       5.250       5.250       5.250       5.250       5.250       5.250    
        5.250       5.250       5.250       5.250       5.250    
   2    4.329       4.299       4.249       4.225       4.339       4.490       4.642       4.804       4.935       4.983    
        5.026       5.058       5.072       5.077       5.078    
   3    3.571       3.499       3.352       3.187       3.524       3.861       4.162       4.459       4.682       4.769    
        4.838       4.886       4.906       4.910       4.910    
   4    3.028       2.917       2.612       1.771       2.848       3.409       3.824       4.214       4.499       4.618    
        4.721       4.795       4.808       4.800       4.793    
   5    2.748       2.683       2.553       2.423       2.824       3.247       3.652       4.070       4.383       4.529    
        4.677       4.814       4.776       4.736       4.716    
   6    2.691       2.671       2.652       2.695       2.931       3.249       3.608       4.009       4.320       4.481    
        4.686       5.054       4.789       4.695       4.662    
   7    2.805       2.812       2.841       2.925       3.103       3.353       3.657       4.013       4.293       4.431    
        4.575       4.712       4.674       4.635       4.615    
   8    3.055       3.071       3.114       3.199       3.341       3.536       3.780       4.073       4.304       4.412    
        4.510       4.585       4.598       4.591       4.585    
   9    3.411       3.428       3.468       3.538       3.645       3.788       3.968       4.185       4.359       4.436    
        4.503       4.552       4.574       4.581       4.582    
  10    3.848       3.862       3.891       3.939       4.009       4.101       4.214       4.347       4.452       4.500    
        4.543       4.576       4.596       4.606       4.609    
  11    4.342       4.350       4.365       4.390       4.423       4.465       4.512       4.557       4.573       4.593    
        4.617       4.638       4.652       4.661       4.665    
  12    4.658       4.662       4.669       4.679       4.692       4.706       4.718       4.723       4.701       4.702    
        4.713       4.724       4.734       4.740       4.743    
  13    4.764       4.766       4.770       4.776       4.784       4.792       4.800       4.805       4.810       4.815    
        4.821       4.827       4.833       4.836       4.838    
  14    4.871       4.872       4.873       4.876       4.879       4.883       4.888       4.893       4.904       4.909    
        4.913       4.917       4.920       4.921       4.922    
  15    4.978       4.978       4.977       4.976       4.975       4.974       4.976       4.978       4.981       4.984    
        4.985       4.987       4.988       4.989       4.989    
  16    4.888       4.881       4.869       4.853       4.837       4.831       4.843       4.866       4.889       4.909    
        4.926       4.938       4.946       4.952       4.954    
  17    4.803       4.791       4.766       4.731       4.691       4.667       4.702       4.752       4.800       4.840    
        4.870       4.893       4.908       4.918       4.923    
  18    4.732       4.713       4.675       4.613       4.529       4.446       4.543       4.642       4.720       4.779    
        4.823       4.855       4.877       4.890       4.897    
  19    4.681       4.657       4.606       4.519       4.367       4.044       4.383       4.553       4.660       4.735    
        4.789       4.828       4.854       4.871       4.879    
  20    4.654       4.628       4.574       4.489       4.375       4.270       4.393       4.526       4.632       4.713    
        4.771       4.813       4.842       4.860       4.869    

 HEAD WILL BE SAVED ON UNIT   51 AT END OF TIME STEP   75, STRESS PERIOD    2

 DRAWDOWN WILL BE SAVED ON UNIT   52 AT END OF TIME STEP   75, STRESS PERIOD    2
1
  VOLUMETRIC BUDGET FOR ENTIRE MODEL AT END OF TIME STEP   75, STRESS PERIOD   2
  ------------------------------------------------------------------------------

     CUMULATIVE VOLUMES      L**3       RATES FOR THIS TIME STEP      L**3/T
     ------------------                 ------------------------

           IN:                                      IN:
           ---                                      ---
             STORAGE =         683.3799               STORAGE =           0.0000
       CONSTANT HEAD =       52941.6094         CONSTANT HEAD =         613.4427
               WELLS =       15600.0000                 WELLS =         200.0000
       RIVER LEAKAGE =      196250.2344         RIVER LEAKAGE =         716.0188

            TOTAL IN =      265475.2188              TOTAL IN =        1529.4614

          OUT:                                     OUT:
          ----                                     ----
             STORAGE =      222952.1562               STORAGE =         979.4647
       CONSTANT HEAD =           0.0000         CONSTANT HEAD =           0.0000
               WELLS =       41850.0000                 WELLS =         550.0000
       RIVER LEAKAGE =         673.0626         RIVER LEAKAGE =           0.0000

           TOTAL OUT =      265475.2188             TOTAL OUT =        1529.4646

            IN - OUT =           0.0000              IN - OUT =      -3.1738E-03

 PERCENT DISCREPANCY =           0.00     PERCENT DISCREPANCY =          -0.00






         TIME SUMMARY AT END OF TIME STEP   75 IN STRESS PERIOD    2
                    SECONDS     MINUTES      HOURS       DAYS        YEARS
                    -----------------------------------------------------------
   TIME STEP LENGTH  86400.      1440.0      24.000      1.0000     2.73785E-03
 STRESS PERIOD TIME 6.48000E+06 1.08000E+05  1800.0      75.000     0.20534    
         TOTAL TIME 6.56640E+06 1.09440E+05  1824.0      76.000     0.20808    
1
 
 SOLVING FOR HEAD 

 OUTPUT CONTROL FOR STRESS PERIOD    2   TIME STEP   76
    SAVE HEAD FOR ALL LAYERS
    SAVE DRAWDOWN FOR ALL LAYERS
    SAVE BUDGET
    PRINT HEAD FOR ALL LAYERS
    PRINT BUDGET
 UBDSV1 SAVING "         STORAGE" ON UNIT   1 AT TIME STEP 76, STRESS PERIOD   2
 UBDSV2 SAVING "   CONSTANT HEAD" ON UNIT   1 AT TIME STEP 76, STRESS PERIOD   2
 UBDSV1 SAVING "FLOW RIGHT FACE " ON UNIT   1 AT TIME STEP 76, STRESS PERIOD   2
 UBDSV1 SAVING "FLOW FRONT FACE " ON UNIT   1 AT TIME STEP 76, STRESS PERIOD   2
1
              HEAD IN LAYER   1 AT END OF TIME STEP  76 IN STRESS PERIOD    2
  ---------------------------------------------------------------------------

            1           2           3           4           5           6           7           8           9          10
           11          12          13          14          15
 ........................................................................................................................
   1    5.280       5.280       5.280       5.280       5.280       5.280       5.280       5.280       5.280       5.280    
        5.280       5.280       5.280       5.280       5.280    
   2    4.360       4.330       4.280       4.256       4.370       4.520       4.673       4.835       4.967       5.022    
        5.065       5.092       5.104       5.108       5.109    
   3    3.603       3.531       3.384       3.220       3.556       3.893       4.193       4.490       4.713       4.802    
        4.872       4.920       4.939       4.943       4.942    
   4    3.061       2.950       2.645       1.805       2.880       3.441       3.855       4.245       4.529       4.649    
        4.751       4.826       4.838       4.831       4.824    
   5    2.781       2.716       2.586       2.456       2.857       3.279       3.683       4.100       4.412       4.558    
        4.706       4.843       4.805       4.765       4.745    
   6    2.723       2.703       2.684       2.727       2.963       3.280       3.637       4.038       4.347       4.509    
        4.714       5.081       4.816       4.722       4.689    
   7    2.835       2.842       2.870       2.954       3.132       3.382       3.684       4.039       4.318       4.456    
        4.600       4.737       4.699       4.659       4.639    
   8    3.081       3.098       3.140       3.225       3.366       3.561       3.805       4.096       4.327       4.434    
        4.532       4.607       4.620       4.613       4.607    
   9    3.432       3.450       3.490       3.559       3.666       3.809       3.989       4.205       4.378       4.455    
        4.522       4.571       4.593       4.600       4.601    
  10    3.864       3.877       3.907       3.955       4.025       4.117       4.230       4.363       4.468       4.516    
        4.559       4.592       4.612       4.622       4.625    
  11    4.351       4.359       4.374       4.399       4.433       4.475       4.522       4.567       4.585       4.606    
        4.629       4.650       4.665       4.673       4.677    
  12    4.663       4.667       4.674       4.684       4.697       4.711       4.724       4.729       4.708       4.711    
        4.722       4.733       4.743       4.749       4.752    
  13    4.768       4.770       4.774       4.780       4.788       4.796       4.804       4.810       4.815       4.820    
        4.826       4.833       4.838       4.842       4.844    
  14    4.873       4.873       4.875       4.878       4.881       4.885       4.890       4.895       4.906       4.912    
        4.916       4.919       4.922       4.924       4.925    
  15    4.978       4.978       4.977       4.976       4.975       4.975       4.976       4.979       4.982       4.984    
        4.986       4.987       4.988       4.989       4.989    
  16    4.888       4.882       4.870       4.854       4.838       4.831       4.844       4.866       4.889       4.910    
        4.926       4.938       4.947       4.952       4.955    
  17    4.804       4.792       4.767       4.732       4.692       4.668       4.702       4.753       4.801       4.840    
        4.871       4.893       4.909       4.919       4.924    
  18    4.733       4.714       4.675       4.614       4.530       4.447       4.544       4.643       4.721       4.780    
        4.824       4.856       4.878       4.891       4.898    
  19    4.682       4.658       4.607       4.519       4.368       4.045       4.384       4.554       4.661       4.736    
        4.790       4.829       4.855       4.872       4.879    
  20    4.655       4.629       4.575       4.490       4.376       4.271       4.394       4.527       4.634       4.714    
        4.772       4.814       4.843       4.861       4.870    

 HEAD WILL BE SAVED ON UNIT   51 AT END OF TIME STEP   76, STRESS PERIOD    2

 DRAWDOWN WILL BE SAVED ON UNIT   52 AT END OF TIME STEP   76, STRESS PERIOD    2
1
  VOLUMETRIC BUDGET FOR ENTIRE MODEL AT END OF TIME STEP   76, STRESS PERIOD   2
  ------------------------------------------------------------------------------

     CUMULATIVE VOLUMES      L**3       RATES FOR THIS TIME STEP      L**3/T
     ------------------                 ------------------------

           IN:                                      IN:
           ---                                      ---
             STORAGE =         683.3799               STORAGE =           0.0000
       CONSTANT HEAD =       53549.7812         CONSTANT HEAD =         608.1730
               WELLS =       15800.0000                 WELLS =         200.0000
       RIVER LEAKAGE =      196957.4375         RIVER LEAKAGE =         707.2082

            TOTAL IN =      266990.5938              TOTAL IN =        1515.3812

          OUT:                                     OUT:
          ----                                     ----
             STORAGE =      223917.5312               STORAGE =         965.3811
       CONSTANT HEAD =           0.0000         CONSTANT HEAD =           0.0000
               WELLS =       42400.0000                 WELLS =         550.0000
       RIVER LEAKAGE =         673.0626         RIVER LEAKAGE =           0.0000

           TOTAL OUT =      266990.5938             TOTAL OUT =        1515.3811

            IN - OUT =           0.0000              IN - OUT =       1.2207E-04

 PERCENT DISCREPANCY =           0.00     PERCENT DISCREPANCY =           0.00






         TIME SUMMARY AT END OF TIME STEP   76 IN STRESS PERIOD    2
                    SECONDS     MINUTES      HOURS       DAYS        YEARS
                    -----------------------------------------------------------
   TIME STEP LENGTH  86400.      1440.0      24.000      1.0000     2.73785E-03
 STRESS PERIOD TIME 6.56640E+06 1.09440E+05  1824.0      76.000     0.20808    
         TOTAL TIME 6.65280E+06 1.10880E+05  1848.0      77.000     0.21081    
1
 
 SOLVING FOR HEAD 

 OUTPUT CONTROL FOR STRESS PERIOD    2   TIME STEP   77
    SAVE HEAD FOR ALL LAYERS
    SAVE DRAWDOWN FOR ALL LAYERS
    SAVE BUDGET
    PRINT HEAD FOR ALL LAYERS
    PRINT BUDGET
 UBDSV1 SAVING "         STORAGE" ON UNIT   1 AT TIME STEP 77, STRESS PERIOD   2
 UBDSV2 SAVING "   CONSTANT HEAD" ON UNIT   1 AT TIME STEP 77, STRESS PERIOD   2
 UBDSV1 SAVING "FLOW RIGHT FACE " ON UNIT   1 AT TIME STEP 77, STRESS PERIOD   2
 UBDSV1 SAVING "FLOW FRONT FACE " ON UNIT   1 AT TIME STEP 77, STRESS PERIOD   2
1
              HEAD IN LAYER   1 AT END OF TIME STEP  77 IN STRESS PERIOD    2
  ---------------------------------------------------------------------------

            1           2           3           4           5           6           7           8           9          10
           11          12          13          14          15
 ........................................................................................................................
   1    5.310       5.310       5.310       5.310       5.310       5.310       5.310       5.310       5.310       5.310    
        5.310       5.310       5.310       5.310       5.310    
   2    4.391       4.361       4.311       4.287       4.401       4.551       4.704       4.866       5.000       5.060    
        5.099       5.123       5.135       5.139       5.140    
   3    3.635       3.564       3.417       3.252       3.588       3.924       4.224       4.521       4.745       4.835    
        4.905       4.952       4.971       4.974       4.974    
   4    3.094       2.983       2.678       1.838       2.913       3.473       3.886       4.275       4.559       4.679    
        4.782       4.857       4.869       4.861       4.854    
   5    2.814       2.749       2.619       2.489       2.889       3.310       3.713       4.129       4.441       4.587    
        4.735       4.872       4.834       4.793       4.773    
   6    2.755       2.735       2.716       2.758       2.994       3.310       3.667       4.066       4.374       4.535    
        4.741       5.108       4.843       4.749       4.715    
   7    2.865       2.871       2.900       2.983       3.161       3.410       3.711       4.065       4.343       4.480    
        4.625       4.762       4.723       4.683       4.663    
   8    3.107       3.124       3.166       3.251       3.392       3.586       3.829       4.119       4.349       4.456    
        4.554       4.629       4.641       4.635       4.628    
   9    3.453       3.471       3.511       3.581       3.687       3.830       4.009       4.225       4.397       4.474    
        4.541       4.590       4.612       4.619       4.620    
  10    3.880       3.893       3.922       3.971       4.041       4.133       4.245       4.378       4.483       4.531    
        4.574       4.608       4.628       4.637       4.641    
  11    4.361       4.368       4.383       4.408       4.442       4.484       4.531       4.577       4.597       4.618    
        4.642       4.662       4.677       4.686       4.690    
  12    4.668       4.671       4.678       4.689       4.702       4.716       4.730       4.735       4.716       4.719    
        4.730       4.742       4.752       4.758       4.761    
  13    4.771       4.773       4.777       4.783       4.791       4.800       4.808       4.814       4.819       4.824    
        4.831       4.838       4.843       4.847       4.849    
  14    4.874       4.875       4.877       4.879       4.883       4.887       4.892       4.898       4.908       4.914    
        4.918       4.922       4.925       4.926       4.927    
  15    4.979       4.978       4.977       4.976       4.975       4.975       4.976       4.979       4.982       4.984    
        4.986       4.987       4.988       4.989       4.989    
  16    4.888       4.882       4.870       4.854       4.838       4.832       4.844       4.867       4.890       4.910    
        4.926       4.939       4.947       4.953       4.955    
  17    4.805       4.792       4.768       4.732       4.692       4.669       4.703       4.753       4.801       4.841    
        4.871       4.894       4.910       4.920       4.924    
  18    4.734       4.715       4.676       4.615       4.531       4.448       4.545       4.644       4.722       4.781    
        4.825       4.856       4.878       4.892       4.899    
  19    4.682       4.658       4.608       4.520       4.369       4.045       4.385       4.554       4.662       4.737    
        4.791       4.829       4.856       4.872       4.880    
  20    4.656       4.630       4.576       4.491       4.377       4.272       4.395       4.528       4.634       4.715    
        4.773       4.815       4.844       4.862       4.871    

 HEAD WILL BE SAVED ON UNIT   51 AT END OF TIME STEP   77, STRESS PERIOD    2

 DRAWDOWN WILL BE SAVED ON UNIT   52 AT END OF TIME STEP   77, STRESS PERIOD    2
1
  VOLUMETRIC BUDGET FOR ENTIRE MODEL AT END OF TIME STEP   77, STRESS PERIOD   2
  ------------------------------------------------------------------------------

     CUMULATIVE VOLUMES      L**3       RATES FOR THIS TIME STEP      L**3/T
     ------------------                 ------------------------

           IN:                                      IN:
           ---                                      ---
             STORAGE =         683.3799               STORAGE =           0.0000
       CONSTANT HEAD =       54154.5039         CONSTANT HEAD =         604.7212
               WELLS =       16000.0000                 WELLS =         200.0000
       RIVER LEAKAGE =      197656.0000         RIVER LEAKAGE =         698.5701

            TOTAL IN =      268493.8750              TOTAL IN =        1503.2913

          OUT:                                     OUT:
          ----                                     ----
             STORAGE =      224870.8281               STORAGE =         953.2906
       CONSTANT HEAD =           0.0000         CONSTANT HEAD =           0.0000
               WELLS =       42950.0000                 WELLS =         550.0000
       RIVER LEAKAGE =         673.0626         RIVER LEAKAGE =           0.0000

           TOTAL OUT =      268493.8750             TOTAL OUT =        1503.2906

            IN - OUT =           0.0000              IN - OUT =       6.1035E-04

 PERCENT DISCREPANCY =           0.00     PERCENT DISCREPANCY =           0.00






         TIME SUMMARY AT END OF TIME STEP   77 IN STRESS PERIOD    2
                    SECONDS     MINUTES      HOURS       DAYS        YEARS
                    -----------------------------------------------------------
   TIME STEP LENGTH  86400.      1440.0      24.000      1.0000     2.73785E-03
 STRESS PERIOD TIME 6.65280E+06 1.10880E+05  1848.0      77.000     0.21081    
         TOTAL TIME 6.73920E+06 1.12320E+05  1872.0      78.000     0.21355    
1
 
 SOLVING FOR HEAD 

 OUTPUT CONTROL FOR STRESS PERIOD    2   TIME STEP   78
    SAVE HEAD FOR ALL LAYERS
    SAVE DRAWDOWN FOR ALL LAYERS
    SAVE BUDGET
    PRINT HEAD FOR ALL LAYERS
    PRINT BUDGET
 UBDSV1 SAVING "         STORAGE" ON UNIT   1 AT TIME STEP 78, STRESS PERIOD   2
 UBDSV2 SAVING "   CONSTANT HEAD" ON UNIT   1 AT TIME STEP 78, STRESS PERIOD   2
 UBDSV1 SAVING "FLOW RIGHT FACE " ON UNIT   1 AT TIME STEP 78, STRESS PERIOD   2
 UBDSV1 SAVING "FLOW FRONT FACE " ON UNIT   1 AT TIME STEP 78, STRESS PERIOD   2
1
              HEAD IN LAYER   1 AT END OF TIME STEP  78 IN STRESS PERIOD    2
  ---------------------------------------------------------------------------

            1           2           3           4           5           6           7           8           9          10
           11          12          13          14          15
 ........................................................................................................................
   1    5.340       5.340       5.340       5.340       5.340       5.340       5.340       5.340       5.340       5.340    
        5.340       5.340       5.340       5.340       5.340    
   2    4.422       4.392       4.342       4.318       4.432       4.582       4.735       4.899       5.046       5.096    
        5.131       5.155       5.167       5.171       5.172    
   3    3.668       3.596       3.449       3.284       3.620       3.956       4.255       4.553       4.780       4.868    
        4.937       4.984       5.004       5.009       5.009    
   4    3.127       3.016       2.711       1.872       2.946       3.505       3.917       4.306       4.590       4.710    
        4.813       4.888       4.900       4.892       4.885    
   5    2.847       2.782       2.652       2.521       2.921       3.342       3.744       4.159       4.469       4.615    
        4.763       4.901       4.862       4.822       4.802    
   6    2.786       2.767       2.747       2.790       3.024       3.340       3.696       4.093       4.402       4.562    
        4.768       5.134       4.870       4.775       4.741    
   7    2.894       2.900       2.929       3.012       3.190       3.438       3.738       4.091       4.367       4.505    
        4.650       4.786       4.748       4.707       4.687    
   8    3.133       3.149       3.192       3.276       3.417       3.611       3.853       4.142       4.371       4.478    
        4.576       4.650       4.663       4.656       4.650    
   9    3.475       3.492       3.532       3.602       3.708       3.851       4.029       4.244       4.416       4.493    
        4.560       4.609       4.631       4.638       4.638    
  10    3.895       3.908       3.938       3.986       4.056       4.148       4.261       4.394       4.498       4.547    
        4.590       4.623       4.643       4.653       4.657    
  11    4.369       4.377       4.392       4.417       4.451       4.493       4.541       4.588       4.608       4.629    
        4.654       4.675       4.690       4.698       4.702    
  12    4.673       4.676       4.683       4.693       4.707       4.722       4.735       4.741       4.723       4.727    
        4.739       4.751       4.761       4.767       4.770    
  13    4.774       4.776       4.780       4.787       4.795       4.803       4.812       4.818       4.824       4.829    
        4.836       4.843       4.849       4.853       4.854    
  14    4.876       4.877       4.879       4.881       4.885       4.889       4.894       4.900       4.910       4.916    
        4.920       4.924       4.927       4.929       4.930    
  15    4.979       4.978       4.977       4.976       4.975       4.975       4.977       4.979       4.982       4.984    
        4.986       4.988       4.989       4.989       4.990    
  16    4.889       4.883       4.871       4.855       4.839       4.832       4.845       4.867       4.890       4.911    
        4.927       4.939       4.948       4.953       4.956    
  17    4.805       4.793       4.768       4.733       4.693       4.669       4.703       4.754       4.802       4.841    
        4.872       4.894       4.910       4.920       4.925    
  18    4.735       4.716       4.677       4.615       4.532       4.449       4.545       4.644       4.722       4.782    
        4.825       4.857       4.879       4.893       4.899    
  19    4.683       4.659       4.608       4.521       4.369       4.046       4.386       4.555       4.663       4.738    
        4.792       4.830       4.857       4.873       4.881    
  20    4.656       4.631       4.577       4.492       4.378       4.273       4.396       4.529       4.635       4.716    
        4.774       4.816       4.845       4.863       4.872    

 HEAD WILL BE SAVED ON UNIT   51 AT END OF TIME STEP   78, STRESS PERIOD    2

 DRAWDOWN WILL BE SAVED ON UNIT   52 AT END OF TIME STEP   78, STRESS PERIOD    2
1
  VOLUMETRIC BUDGET FOR ENTIRE MODEL AT END OF TIME STEP   78, STRESS PERIOD   2
  ------------------------------------------------------------------------------

     CUMULATIVE VOLUMES      L**3       RATES FOR THIS TIME STEP      L**3/T
     ------------------                 ------------------------

           IN:                                      IN:
           ---                                      ---
             STORAGE =         683.3799               STORAGE =           0.0000
       CONSTANT HEAD =       54753.4648         CONSTANT HEAD =         598.9600
               WELLS =       16200.0000                 WELLS =         200.0000
       RIVER LEAKAGE =      198346.0938         RIVER LEAKAGE =         690.0980

            TOTAL IN =      269982.9375              TOTAL IN =        1489.0581

          OUT:                                     OUT:
          ----                                     ----
             STORAGE =      225809.8906               STORAGE =         939.0555
       CONSTANT HEAD =           0.0000         CONSTANT HEAD =           0.0000
               WELLS =       43500.0000                 WELLS =         550.0000
       RIVER LEAKAGE =         673.0626         RIVER LEAKAGE =           0.0000

           TOTAL OUT =      269982.9375             TOTAL OUT =        1489.0555

            IN - OUT =           0.0000              IN - OUT =       2.5635E-03

 PERCENT DISCREPANCY =           0.00     PERCENT DISCREPANCY =           0.00






         TIME SUMMARY AT END OF TIME STEP   78 IN STRESS PERIOD    2
                    SECONDS     MINUTES      HOURS       DAYS        YEARS
                    -----------------------------------------------------------
   TIME STEP LENGTH  86400.      1440.0      24.000      1.0000     2.73785E-03
 STRESS PERIOD TIME 6.73920E+06 1.12320E+05  1872.0      78.000     0.21355    
         TOTAL TIME 6.82560E+06 1.13760E+05  1896.0      79.000     0.21629    
1
 
 SOLVING FOR HEAD 

 OUTPUT CONTROL FOR STRESS PERIOD    2   TIME STEP   79
    SAVE HEAD FOR ALL LAYERS
    SAVE DRAWDOWN FOR ALL LAYERS
    SAVE BUDGET
    PRINT HEAD FOR ALL LAYERS
    PRINT BUDGET
 UBDSV1 SAVING "         STORAGE" ON UNIT   1 AT TIME STEP 79, STRESS PERIOD   2
 UBDSV2 SAVING "   CONSTANT HEAD" ON UNIT   1 AT TIME STEP 79, STRESS PERIOD   2
 UBDSV1 SAVING "FLOW RIGHT FACE " ON UNIT   1 AT TIME STEP 79, STRESS PERIOD   2
 UBDSV1 SAVING "FLOW FRONT FACE " ON UNIT   1 AT TIME STEP 79, STRESS PERIOD   2
1
              HEAD IN LAYER   1 AT END OF TIME STEP  79 IN STRESS PERIOD    2
  ---------------------------------------------------------------------------

            1           2           3           4           5           6           7           8           9          10
           11          12          13          14          15
 ........................................................................................................................
   1    5.370       5.370       5.370       5.370       5.370       5.370       5.370       5.370       5.370       5.370    
        5.370       5.370       5.370       5.370       5.370    
   2    4.453       4.423       4.373       4.349       4.463       4.613       4.766       4.931       5.078       5.128    
        5.165       5.192       5.208       5.214       5.216    
   3    3.700       3.628       3.481       3.317       3.652       3.987       4.287       4.584       4.813       4.901    
        4.972       5.030       5.059       5.067       5.067    
   4    3.159       3.049       2.744       1.905       2.978       3.536       3.948       4.336       4.621       4.741    
        4.845       4.923       4.937       4.931       4.924    
   5    2.879       2.814       2.684       2.554       2.953       3.373       3.774       4.188       4.499       4.644    
        4.793       4.931       4.893       4.853       4.833    
   6    2.817       2.798       2.778       2.821       3.055       3.370       3.725       4.121       4.429       4.589    
        4.794       5.161       4.897       4.802       4.768    
   7    2.923       2.929       2.958       3.041       3.218       3.465       3.765       4.116       4.392       4.529    
        4.674       4.811       4.772       4.732       4.711    
   8    3.158       3.175       3.217       3.302       3.442       3.636       3.877       4.165       4.393       4.500    
        4.598       4.672       4.685       4.678       4.671    
   9    3.495       3.513       3.553       3.622       3.728       3.871       4.049       4.264       4.435       4.512    
        4.579       4.628       4.650       4.656       4.657    
  10    3.910       3.924       3.953       4.001       4.071       4.163       4.276       4.409       4.514       4.562    
        4.605       4.639       4.659       4.668       4.672    
  11    4.378       4.386       4.401       4.426       4.460       4.502       4.550       4.598       4.619       4.641    
        4.666       4.687       4.702       4.710       4.714    
  12    4.677       4.681       4.688       4.698       4.712       4.727       4.740       4.747       4.731       4.735    
        4.747       4.760       4.770       4.776       4.779    
  13    4.777       4.779       4.784       4.790       4.798       4.807       4.815       4.822       4.828       4.834    
        4.841       4.848       4.854       4.858       4.860    
  14    4.878       4.879       4.880       4.883       4.886       4.891       4.896       4.902       4.912       4.918    
        4.923       4.926       4.929       4.931       4.932    
  15    4.979       4.978       4.978       4.976       4.975       4.975       4.977       4.979       4.982       4.985    
        4.986       4.988       4.989       4.990       4.990    
  16    4.889       4.883       4.871       4.855       4.839       4.832       4.845       4.867       4.891       4.911    
        4.927       4.939       4.948       4.954       4.956    
  17    4.806       4.793       4.769       4.733       4.694       4.670       4.704       4.755       4.803       4.842    
        4.873       4.895       4.911       4.921       4.926    
  18    4.735       4.716       4.677       4.616       4.532       4.449       4.546       4.645       4.723       4.782    
        4.826       4.858       4.880       4.894       4.900    
  19    4.684       4.660       4.609       4.522       4.370       4.047       4.387       4.556       4.663       4.738    
        4.793       4.831       4.858       4.874       4.882    
  20    4.657       4.631       4.577       4.493       4.379       4.274       4.397       4.529       4.636       4.716    
        4.775       4.817       4.846       4.864       4.873    

 HEAD WILL BE SAVED ON UNIT   51 AT END OF TIME STEP   79, STRESS PERIOD    2

 DRAWDOWN WILL BE SAVED ON UNIT   52 AT END OF TIME STEP   79, STRESS PERIOD    2
1
  VOLUMETRIC BUDGET FOR ENTIRE MODEL AT END OF TIME STEP   79, STRESS PERIOD   2
  ------------------------------------------------------------------------------

     CUMULATIVE VOLUMES      L**3       RATES FOR THIS TIME STEP      L**3/T
     ------------------                 ------------------------

           IN:                                      IN:
           ---                                      ---
             STORAGE =         683.3799               STORAGE =           0.0000
       CONSTANT HEAD =       55343.1250         CONSTANT HEAD =         589.6608
               WELLS =       16400.0000                 WELLS =         200.0000
       RIVER LEAKAGE =      199027.8750         RIVER LEAKAGE =         681.7773

            TOTAL IN =      271454.3750              TOTAL IN =        1471.4381

          OUT:                                     OUT:
          ----                                     ----
             STORAGE =      226731.3281               STORAGE =         921.4405
       CONSTANT HEAD =           0.0000         CONSTANT HEAD =           0.0000
               WELLS =       44050.0000                 WELLS =         550.0000
       RIVER LEAKAGE =         673.0626         RIVER LEAKAGE =           0.0000

           TOTAL OUT =      271454.3750             TOTAL OUT =        1471.4404

            IN - OUT =           0.0000              IN - OUT =      -2.3193E-03

 PERCENT DISCREPANCY =           0.00     PERCENT DISCREPANCY =          -0.00






         TIME SUMMARY AT END OF TIME STEP   79 IN STRESS PERIOD    2
                    SECONDS     MINUTES      HOURS       DAYS        YEARS
                    -----------------------------------------------------------
   TIME STEP LENGTH  86400.      1440.0      24.000      1.0000     2.73785E-03
 STRESS PERIOD TIME 6.82560E+06 1.13760E+05  1896.0      79.000     0.21629    
         TOTAL TIME 6.91200E+06 1.15200E+05  1920.0      80.000     0.21903    
1
 
 SOLVING FOR HEAD 

 OUTPUT CONTROL FOR STRESS PERIOD    2   TIME STEP   80
    SAVE HEAD FOR ALL LAYERS
    SAVE DRAWDOWN FOR ALL LAYERS
    SAVE BUDGET
    PRINT HEAD FOR ALL LAYERS
    PRINT BUDGET
 UBDSV1 SAVING "         STORAGE" ON UNIT   1 AT TIME STEP 80, STRESS PERIOD   2
 UBDSV2 SAVING "   CONSTANT HEAD" ON UNIT   1 AT TIME STEP 80, STRESS PERIOD   2
 UBDSV1 SAVING "FLOW RIGHT FACE " ON UNIT   1 AT TIME STEP 80, STRESS PERIOD   2
 UBDSV1 SAVING "FLOW FRONT FACE " ON UNIT   1 AT TIME STEP 80, STRESS PERIOD   2
1
              HEAD IN LAYER   1 AT END OF TIME STEP  80 IN STRESS PERIOD    2
  ---------------------------------------------------------------------------

            1           2           3           4           5           6           7           8           9          10
           11          12          13          14          15
 ........................................................................................................................
   1    5.400       5.400       5.400       5.400       5.400       5.400       5.400       5.400       5.400       5.400    
        5.400       5.400       5.400       5.400       5.400    
   2    4.484       4.454       4.404       4.380       4.494       4.644       4.797       4.963       5.110       5.160    
        5.199       5.228       5.242       5.248       5.249    
   3    3.732       3.660       3.513       3.349       3.684       4.019       4.318       4.616       4.845       4.934    
        5.010       5.072       5.097       5.103       5.103    
   4    3.192       3.082       2.777       1.938       3.010       3.568       3.980       4.367       4.652       4.773    
        4.878       4.958       4.973       4.966       4.960    
   5    2.912       2.847       2.716       2.586       2.985       3.404       3.804       4.217       4.528       4.674    
        4.823       4.962       4.924       4.884       4.864    
   6    2.848       2.829       2.809       2.851       3.085       3.400       3.753       4.149       4.456       4.616    
        4.821       5.188       4.924       4.830       4.796    
   7    2.952       2.958       2.986       3.069       3.246       3.493       3.792       4.142       4.417       4.554    
        4.698       4.835       4.796       4.756       4.736    
   8    3.184       3.200       3.242       3.327       3.467       3.660       3.900       4.188       4.415       4.521    
        4.619       4.694       4.706       4.699       4.693    
   9    3.516       3.534       3.573       3.643       3.749       3.891       4.069       4.283       4.453       4.530    
        4.597       4.646       4.668       4.675       4.676    
  10    3.925       3.939       3.968       4.016       4.086       4.178       4.291       4.424       4.529       4.577    
        4.621       4.654       4.674       4.684       4.687    
  11    4.387       4.394       4.410       4.435       4.469       4.511       4.559       4.608       4.630       4.653    
        4.678       4.699       4.714       4.723       4.726    
  12    4.682       4.685       4.692       4.703       4.716       4.732       4.746       4.753       4.738       4.743    
        4.756       4.768       4.778       4.785       4.788    
  13    4.780       4.783       4.787       4.793       4.801       4.810       4.819       4.826       4.832       4.839    
        4.846       4.853       4.859       4.863       4.865    
  14    4.880       4.880       4.882       4.885       4.888       4.892       4.898       4.904       4.914       4.920    
        4.925       4.929       4.932       4.934       4.935    
  15    4.979       4.979       4.978       4.977       4.976       4.975       4.977       4.979       4.982       4.985    
        4.987       4.988       4.989       4.990       4.990    
  16    4.890       4.883       4.871       4.855       4.839       4.833       4.845       4.868       4.891       4.911    
        4.928       4.940       4.948       4.954       4.957    
  17    4.806       4.794       4.769       4.734       4.694       4.670       4.704       4.755       4.803       4.843    
        4.873       4.896       4.911       4.921       4.926    
  18    4.736       4.717       4.678       4.617       4.533       4.450       4.547       4.646       4.724       4.783    
        4.827       4.859       4.880       4.894       4.901    
  19    4.685       4.661       4.610       4.523       4.371       4.048       4.387       4.557       4.664       4.739    
        4.793       4.832       4.858       4.875       4.883    
  20    4.658       4.632       4.578       4.493       4.380       4.275       4.397       4.530       4.637       4.717    
        4.776       4.818       4.847       4.865       4.873    

 HEAD WILL BE SAVED ON UNIT   51 AT END OF TIME STEP   80, STRESS PERIOD    2

 DRAWDOWN WILL BE SAVED ON UNIT   52 AT END OF TIME STEP   80, STRESS PERIOD    2
1
  VOLUMETRIC BUDGET FOR ENTIRE MODEL AT END OF TIME STEP   80, STRESS PERIOD   2
  ------------------------------------------------------------------------------

     CUMULATIVE VOLUMES      L**3       RATES FOR THIS TIME STEP      L**3/T
     ------------------                 ------------------------

           IN:                                      IN:
           ---                                      ---
             STORAGE =         683.3799               STORAGE =           0.0000
       CONSTANT HEAD =       55928.4727         CONSTANT HEAD =         585.3459
               WELLS =       16600.0000                 WELLS =         200.0000
       RIVER LEAKAGE =      199701.4844         RIVER LEAKAGE =         673.6071

            TOTAL IN =      272913.3438              TOTAL IN =        1458.9530

          OUT:                                     OUT:
          ----                                     ----
             STORAGE =      227640.2812               STORAGE =         908.9505
       CONSTANT HEAD =           0.0000         CONSTANT HEAD =           0.0000
               WELLS =       44600.0000                 WELLS =         550.0000
       RIVER LEAKAGE =         673.0626         RIVER LEAKAGE =           0.0000

           TOTAL OUT =      272913.3438             TOTAL OUT =        1458.9504

            IN - OUT =           0.0000              IN - OUT =       2.5635E-03

 PERCENT DISCREPANCY =           0.00     PERCENT DISCREPANCY =           0.00






         TIME SUMMARY AT END OF TIME STEP   80 IN STRESS PERIOD    2
                    SECONDS     MINUTES      HOURS       DAYS        YEARS
                    -----------------------------------------------------------
   TIME STEP LENGTH  86400.      1440.0      24.000      1.0000     2.73785E-03
 STRESS PERIOD TIME 6.91200E+06 1.15200E+05  1920.0      80.000     0.21903    
         TOTAL TIME 6.99840E+06 1.16640E+05  1944.0      81.000     0.22177    
1
 
 SOLVING FOR HEAD 

 OUTPUT CONTROL FOR STRESS PERIOD    2   TIME STEP   81
    SAVE HEAD FOR ALL LAYERS
    SAVE DRAWDOWN FOR ALL LAYERS
    SAVE BUDGET
    PRINT HEAD FOR ALL LAYERS
    PRINT BUDGET
 UBDSV1 SAVING "         STORAGE" ON UNIT   1 AT TIME STEP 81, STRESS PERIOD   2
 UBDSV2 SAVING "   CONSTANT HEAD" ON UNIT   1 AT TIME STEP 81, STRESS PERIOD   2
 UBDSV1 SAVING "FLOW RIGHT FACE " ON UNIT   1 AT TIME STEP 81, STRESS PERIOD   2
 UBDSV1 SAVING "FLOW FRONT FACE " ON UNIT   1 AT TIME STEP 81, STRESS PERIOD   2
1
              HEAD IN LAYER   1 AT END OF TIME STEP  81 IN STRESS PERIOD    2
  ---------------------------------------------------------------------------

            1           2           3           4           5           6           7           8           9          10
           11          12          13          14          15
 ........................................................................................................................
   1    5.430       5.430       5.430       5.430       5.430       5.430       5.430       5.430       5.430       5.430    
        5.430       5.430       5.430       5.430       5.430    
   2    4.515       4.485       4.435       4.411       4.525       4.675       4.828       4.995       5.142       5.193    
        5.235       5.262       5.275       5.280       5.281    
   3    3.764       3.692       3.545       3.381       3.716       4.050       4.349       4.648       4.877       4.970    
        5.056       5.110       5.132       5.137       5.136    
   4    3.224       3.114       2.809       1.971       3.042       3.599       4.011       4.398       4.683       4.805    
        4.914       4.993       5.010       5.001       4.994    
   5    2.944       2.879       2.749       2.618       3.016       3.435       3.834       4.247       4.557       4.703    
        4.853       4.993       4.956       4.916       4.895    
   6    2.879       2.860       2.840       2.882       3.115       3.429       3.782       4.177       4.483       4.643    
        4.849       5.216       4.952       4.857       4.824    
   7    2.980       2.986       3.015       3.098       3.274       3.520       3.818       4.167       4.441       4.578    
        4.723       4.860       4.821       4.780       4.760    
   8    3.209       3.225       3.267       3.351       3.491       3.684       3.923       4.210       4.437       4.543    
        4.641       4.715       4.728       4.721       4.714    
   9    3.537       3.554       3.594       3.663       3.769       3.911       4.088       4.302       4.472       4.549    
        4.616       4.665       4.687       4.693       4.694    
  10    3.940       3.954       3.983       4.031       4.101       4.193       4.305       4.438       4.544       4.592    
        4.636       4.669       4.689       4.699       4.703    
  11    4.395       4.403       4.419       4.443       4.477       4.520       4.569       4.617       4.641       4.664    
        4.689       4.711       4.726       4.735       4.738    
  12    4.686       4.690       4.697       4.708       4.721       4.737       4.751       4.759       4.745       4.751    
        4.764       4.777       4.787       4.793       4.796    
  13    4.784       4.786       4.790       4.796       4.805       4.814       4.823       4.830       4.837       4.844    
        4.851       4.858       4.864       4.868       4.870    
  14    4.881       4.882       4.884       4.886       4.890       4.894       4.900       4.906       4.917       4.923    
        4.927       4.931       4.934       4.936       4.937    
  15    4.979       4.979       4.978       4.977       4.976       4.976       4.977       4.980       4.983       4.985    
        4.987       4.988       4.989       4.990       4.990    
  16    4.890       4.884       4.872       4.856       4.840       4.833       4.846       4.868       4.892       4.912    
        4.928       4.940       4.949       4.954       4.957    
  17    4.807       4.794       4.770       4.734       4.695       4.671       4.705       4.756       4.804       4.843    
        4.874       4.896       4.912       4.922       4.927    
  18    4.736       4.718       4.679       4.617       4.534       4.450       4.547       4.646       4.724       4.784    
        4.827       4.859       4.881       4.895       4.901    
  19    4.685       4.661       4.610       4.523       4.372       4.049       4.388       4.557       4.665       4.740    
        4.794       4.833       4.859       4.876       4.884    
  20    4.659       4.633       4.579       4.494       4.380       4.276       4.398       4.531       4.638       4.718    
        4.777       4.819       4.848       4.866       4.874    

 HEAD WILL BE SAVED ON UNIT   51 AT END OF TIME STEP   81, STRESS PERIOD    2

 DRAWDOWN WILL BE SAVED ON UNIT   52 AT END OF TIME STEP   81, STRESS PERIOD    2
1
  VOLUMETRIC BUDGET FOR ENTIRE MODEL AT END OF TIME STEP   81, STRESS PERIOD   2
  ------------------------------------------------------------------------------

     CUMULATIVE VOLUMES      L**3       RATES FOR THIS TIME STEP      L**3/T
     ------------------                 ------------------------

           IN:                                      IN:
           ---                                      ---
             STORAGE =         683.3799               STORAGE =           0.0000
       CONSTANT HEAD =       56509.8008         CONSTANT HEAD =         581.3265
               WELLS =       16800.0000                 WELLS =         200.0000
       RIVER LEAKAGE =      200367.0625         RIVER LEAKAGE =         665.5712

            TOTAL IN =      274360.2500              TOTAL IN =        1446.8977

          OUT:                                     OUT:
          ----                                     ----
             STORAGE =      228537.1719               STORAGE =         896.8979
       CONSTANT HEAD =           0.0000         CONSTANT HEAD =           0.0000
               WELLS =       45150.0000                 WELLS =         550.0000
       RIVER LEAKAGE =         673.0626         RIVER LEAKAGE =           0.0000

           TOTAL OUT =      274360.2500             TOTAL OUT =        1446.8979

            IN - OUT =           0.0000              IN - OUT =      -2.4414E-04

 PERCENT DISCREPANCY =           0.00     PERCENT DISCREPANCY =          -0.00






         TIME SUMMARY AT END OF TIME STEP   81 IN STRESS PERIOD    2
                    SECONDS     MINUTES      HOURS       DAYS        YEARS
                    -----------------------------------------------------------
   TIME STEP LENGTH  86400.      1440.0      24.000      1.0000     2.73785E-03
 STRESS PERIOD TIME 6.99840E+06 1.16640E+05  1944.0      81.000     0.22177    
         TOTAL TIME 7.08480E+06 1.18080E+05  1968.0      82.000     0.22450    
1
 
 SOLVING FOR HEAD 

 OUTPUT CONTROL FOR STRESS PERIOD    2   TIME STEP   82
    SAVE HEAD FOR ALL LAYERS
    SAVE DRAWDOWN FOR ALL LAYERS
    SAVE BUDGET
    PRINT HEAD FOR ALL LAYERS
    PRINT BUDGET
 UBDSV1 SAVING "         STORAGE" ON UNIT   1 AT TIME STEP 82, STRESS PERIOD   2
 UBDSV2 SAVING "   CONSTANT HEAD" ON UNIT   1 AT TIME STEP 82, STRESS PERIOD   2
 UBDSV1 SAVING "FLOW RIGHT FACE " ON UNIT   1 AT TIME STEP 82, STRESS PERIOD   2
 UBDSV1 SAVING "FLOW FRONT FACE " ON UNIT   1 AT TIME STEP 82, STRESS PERIOD   2
1
              HEAD IN LAYER   1 AT END OF TIME STEP  82 IN STRESS PERIOD    2
  ---------------------------------------------------------------------------

            1           2           3           4           5           6           7           8           9          10
           11          12          13          14          15
 ........................................................................................................................
   1    5.460       5.460       5.460       5.460       5.460       5.460       5.460       5.460       5.460       5.460    
        5.460       5.460       5.460       5.460       5.460    
   2    4.546       4.516       4.466       4.442       4.556       4.706       4.862       5.053       5.178       5.228    
        5.271       5.300       5.315       5.321       5.322    
   3    3.796       3.724       3.577       3.413       3.747       4.082       4.381       4.683       4.912       5.008    
        5.097       5.158       5.183       5.190       5.189    
   4    3.257       3.146       2.842       2.004       3.074       3.631       4.042       4.430       4.716       4.840    
        4.955       5.054       5.075       5.069       5.060    
   5    2.976       2.911       2.780       2.650       3.048       3.465       3.864       4.277       4.587       4.735    
        4.890       5.045       4.999       4.958       4.937    
   6    2.910       2.890       2.870       2.912       3.145       3.458       3.810       4.204       4.510       4.671    
        4.879       5.251       4.984       4.889       4.855    
   7    3.008       3.015       3.043       3.126       3.301       3.547       3.844       4.192       4.466       4.603    
        4.748       4.886       4.847       4.806       4.786    
   8    3.233       3.250       3.292       3.376       3.516       3.708       3.947       4.232       4.458       4.565    
        4.663       4.737       4.750       4.743       4.736    
   9    3.557       3.574       3.614       3.683       3.789       3.930       4.108       4.321       4.490       4.567    
        4.634       4.683       4.705       4.712       4.712    
  10    3.955       3.968       3.998       4.046       4.116       4.207       4.320       4.453       4.558       4.607    
        4.651       4.685       4.705       4.714       4.718    
  11    4.404       4.411       4.427       4.452       4.486       4.529       4.578       4.627       4.652       4.676    
        4.701       4.723       4.738       4.747       4.750    
  12    4.691       4.694       4.702       4.712       4.726       4.741       4.756       4.765       4.752       4.759    
        4.772       4.785       4.795       4.802       4.805    
  13    4.787       4.789       4.793       4.800       4.808       4.817       4.826       4.834       4.841       4.848    
        4.856       4.864       4.869       4.873       4.875    
  14    4.883       4.884       4.885       4.888       4.892       4.896       4.902       4.908       4.919       4.925    
        4.929       4.933       4.936       4.938       4.939    
  15    4.979       4.979       4.978       4.977       4.976       4.976       4.977       4.980       4.983       4.985    
        4.987       4.989       4.990       4.990       4.991    
  16    4.890       4.884       4.872       4.856       4.840       4.833       4.846       4.868       4.892       4.912    
        4.928       4.941       4.949       4.955       4.957    
  17    4.807       4.795       4.770       4.735       4.695       4.671       4.705       4.756       4.804       4.844    
        4.874       4.897       4.912       4.922       4.927    
  18    4.737       4.718       4.679       4.618       4.534       4.451       4.548       4.647       4.725       4.784    
        4.828       4.860       4.882       4.895       4.902    
  19    4.686       4.662       4.611       4.524       4.372       4.049       4.389       4.558       4.665       4.741    
        4.795       4.833       4.860       4.876       4.884    
  20    4.659       4.634       4.580       4.495       4.381       4.276       4.399       4.532       4.638       4.719    
        4.777       4.819       4.848       4.866       4.875    

 HEAD WILL BE SAVED ON UNIT   51 AT END OF TIME STEP   82, STRESS PERIOD    2

 DRAWDOWN WILL BE SAVED ON UNIT   52 AT END OF TIME STEP   82, STRESS PERIOD    2
1
  VOLUMETRIC BUDGET FOR ENTIRE MODEL AT END OF TIME STEP   82, STRESS PERIOD   2
  ------------------------------------------------------------------------------

     CUMULATIVE VOLUMES      L**3       RATES FOR THIS TIME STEP      L**3/T
     ------------------                 ------------------------

           IN:                                      IN:
           ---                                      ---
             STORAGE =         683.3799               STORAGE =           0.0000
       CONSTANT HEAD =       57079.6328         CONSTANT HEAD =         569.8330
               WELLS =       17000.0000                 WELLS =         200.0000
       RIVER LEAKAGE =      201024.7344         RIVER LEAKAGE =         657.6646

            TOTAL IN =      275787.7500              TOTAL IN =        1427.4976

          OUT:                                     OUT:
          ----                                     ----
             STORAGE =      229414.6719               STORAGE =         877.4973
       CONSTANT HEAD =           0.0000         CONSTANT HEAD =           0.0000
               WELLS =       45700.0000                 WELLS =         550.0000
       RIVER LEAKAGE =         673.0626         RIVER LEAKAGE =           0.0000

           TOTAL OUT =      275787.7500             TOTAL OUT =        1427.4973

            IN - OUT =           0.0000              IN - OUT =       2.4414E-04

 PERCENT DISCREPANCY =           0.00     PERCENT DISCREPANCY =           0.00






         TIME SUMMARY AT END OF TIME STEP   82 IN STRESS PERIOD    2
                    SECONDS     MINUTES      HOURS       DAYS        YEARS
                    -----------------------------------------------------------
   TIME STEP LENGTH  86400.      1440.0      24.000      1.0000     2.73785E-03
 STRESS PERIOD TIME 7.08480E+06 1.18080E+05  1968.0      82.000     0.22450    
         TOTAL TIME 7.17120E+06 1.19520E+05  1992.0      83.000     0.22724    
1
 
 SOLVING FOR HEAD 

 OUTPUT CONTROL FOR STRESS PERIOD    2   TIME STEP   83
    SAVE HEAD FOR ALL LAYERS
    SAVE DRAWDOWN FOR ALL LAYERS
    SAVE BUDGET
    PRINT HEAD FOR ALL LAYERS
    PRINT BUDGET
 UBDSV1 SAVING "         STORAGE" ON UNIT   1 AT TIME STEP 83, STRESS PERIOD   2
 UBDSV2 SAVING "   CONSTANT HEAD" ON UNIT   1 AT TIME STEP 83, STRESS PERIOD   2
 UBDSV1 SAVING "FLOW RIGHT FACE " ON UNIT   1 AT TIME STEP 83, STRESS PERIOD   2
 UBDSV1 SAVING "FLOW FRONT FACE " ON UNIT   1 AT TIME STEP 83, STRESS PERIOD   2
1
              HEAD IN LAYER   1 AT END OF TIME STEP  83 IN STRESS PERIOD    2
  ---------------------------------------------------------------------------

            1           2           3           4           5           6           7           8           9          10
           11          12          13          14          15
 ........................................................................................................................
   1    5.490       5.490       5.490       5.490       5.490       5.490       5.490       5.490       5.490       5.490    
        5.490       5.490       5.490       5.490       5.490    
   2    4.577       4.547       4.497       4.473       4.587       4.737       4.896       5.093       5.214       5.267    
        5.308       5.337       5.352       5.358       5.359    
   3    3.827       3.756       3.609       3.445       3.779       4.113       4.414       4.719       4.950       5.058    
        5.140       5.201       5.228       5.233       5.232    
   4    3.289       3.179       2.874       2.037       3.106       3.662       4.073       4.462       4.751       4.879    
        4.997       5.104       5.127       5.118       5.108    
   5    3.008       2.942       2.812       2.681       3.079       3.496       3.895       4.307       4.618       4.769    
        4.929       5.096       5.064       5.006       4.979    
   6    2.940       2.921       2.901       2.942       3.175       3.487       3.839       4.232       4.538       4.701    
        4.912       5.291       5.033       4.926       4.889    
   7    3.036       3.043       3.071       3.153       3.329       3.574       3.870       4.217       4.491       4.629    
        4.775       4.915       4.877       4.835       4.814    
   8    3.258       3.274       3.317       3.400       3.539       3.731       3.969       4.254       4.480       4.587    
        4.685       4.760       4.773       4.765       4.759    
   9    3.577       3.594       3.634       3.703       3.808       3.950       4.127       4.339       4.509       4.586    
        4.653       4.702       4.724       4.730       4.731    
  10    3.969       3.983       4.012       4.060       4.130       4.222       4.334       4.468       4.573       4.622    
        4.666       4.700       4.720       4.730       4.733    
  11    4.412       4.420       4.435       4.460       4.495       4.537       4.587       4.637       4.663       4.687    
        4.713       4.734       4.750       4.758       4.762    
  12    4.695       4.699       4.706       4.717       4.730       4.746       4.761       4.771       4.760       4.767    
        4.780       4.794       4.804       4.810       4.813    
  13    4.790       4.792       4.796       4.803       4.811       4.821       4.830       4.838       4.845       4.853    
        4.861       4.869       4.874       4.878       4.880    
  14    4.884       4.885       4.887       4.890       4.893       4.898       4.903       4.910       4.921       4.927    
        4.932       4.936       4.939       4.941       4.942    
  15    4.980       4.979       4.978       4.977       4.976       4.976       4.978       4.980       4.983       4.985    
        4.987       4.989       4.990       4.991       4.991    
  16    4.890       4.884       4.872       4.856       4.840       4.834       4.846       4.869       4.892       4.913    
        4.929       4.941       4.950       4.955       4.958    
  17    4.808       4.795       4.771       4.735       4.695       4.672       4.706       4.757       4.805       4.844    
        4.875       4.897       4.913       4.923       4.928    
  18    4.738       4.719       4.680       4.618       4.535       4.452       4.549       4.647       4.726       4.785    
        4.829       4.860       4.882       4.896       4.903    
  19    4.687       4.663       4.612       4.525       4.373       4.050       4.389       4.559       4.666       4.741    
        4.795       4.834       4.860       4.877       4.885    
  20    4.660       4.634       4.580       4.495       4.382       4.277       4.399       4.532       4.639       4.719    
        4.778       4.820       4.849       4.867       4.876    

 HEAD WILL BE SAVED ON UNIT   51 AT END OF TIME STEP   83, STRESS PERIOD    2

 DRAWDOWN WILL BE SAVED ON UNIT   52 AT END OF TIME STEP   83, STRESS PERIOD    2
1
  VOLUMETRIC BUDGET FOR ENTIRE MODEL AT END OF TIME STEP   83, STRESS PERIOD   2
  ------------------------------------------------------------------------------

     CUMULATIVE VOLUMES      L**3       RATES FOR THIS TIME STEP      L**3/T
     ------------------                 ------------------------

           IN:                                      IN:
           ---                                      ---
             STORAGE =         683.3799               STORAGE =           0.0000
       CONSTANT HEAD =       57640.3711         CONSTANT HEAD =         560.7385
               WELLS =       17200.0000                 WELLS =         200.0000
       RIVER LEAKAGE =      201674.6094         RIVER LEAKAGE =         649.8770

            TOTAL IN =      277198.3750              TOTAL IN =        1410.6155

          OUT:                                     OUT:
          ----                                     ----
             STORAGE =      230275.2812               STORAGE =         860.6167
       CONSTANT HEAD =           0.0000         CONSTANT HEAD =           0.0000
               WELLS =       46250.0000                 WELLS =         550.0000
       RIVER LEAKAGE =         673.0626         RIVER LEAKAGE =           0.0000

           TOTAL OUT =      277198.3438             TOTAL OUT =        1410.6167

            IN - OUT =       3.1250E-02              IN - OUT =      -1.2207E-03

 PERCENT DISCREPANCY =           0.00     PERCENT DISCREPANCY =          -0.00






         TIME SUMMARY AT END OF TIME STEP   83 IN STRESS PERIOD    2
                    SECONDS     MINUTES      HOURS       DAYS        YEARS
                    -----------------------------------------------------------
   TIME STEP LENGTH  86400.      1440.0      24.000      1.0000     2.73785E-03
 STRESS PERIOD TIME 7.17120E+06 1.19520E+05  1992.0      83.000     0.22724    
         TOTAL TIME 7.25760E+06 1.20960E+05  2016.0      84.000     0.22998    
1
 
 SOLVING FOR HEAD 

 OUTPUT CONTROL FOR STRESS PERIOD    2   TIME STEP   84
    SAVE HEAD FOR ALL LAYERS
    SAVE DRAWDOWN FOR ALL LAYERS
    SAVE BUDGET
    PRINT HEAD FOR ALL LAYERS
    PRINT BUDGET
 UBDSV1 SAVING "         STORAGE" ON UNIT   1 AT TIME STEP 84, STRESS PERIOD   2
 UBDSV2 SAVING "   CONSTANT HEAD" ON UNIT   1 AT TIME STEP 84, STRESS PERIOD   2
 UBDSV1 SAVING "FLOW RIGHT FACE " ON UNIT   1 AT TIME STEP 84, STRESS PERIOD   2
 UBDSV1 SAVING "FLOW FRONT FACE " ON UNIT   1 AT TIME STEP 84, STRESS PERIOD   2
1
              HEAD IN LAYER   1 AT END OF TIME STEP  84 IN STRESS PERIOD    2
  ---------------------------------------------------------------------------

            1           2           3           4           5           6           7           8           9          10
           11          12          13          14          15
 ........................................................................................................................
   1    5.520       5.520       5.520       5.520       5.520       5.520       5.520       5.520       5.520       5.520    
        5.520       5.520       5.520       5.520       5.520    
   2    4.608       4.578       4.528       4.504       4.618       4.769       4.929       5.126       5.248       5.302    
        5.345       5.374       5.390       5.396       5.397    
   3    3.859       3.788       3.641       3.476       3.811       4.145       4.447       4.754       4.987       5.098    
        5.185       5.246       5.273       5.279       5.279    
   4    3.321       3.211       2.906       2.069       3.138       3.694       4.105       4.495       4.787       4.921    
        5.056       5.155       5.179       5.174       5.165    
   5    3.039       2.974       2.844       2.713       3.110       3.526       3.925       4.337       4.651       4.805    
        4.972       5.144       5.119       5.077       5.046    
   6    2.971       2.951       2.931       2.972       3.204       3.516       3.867       4.260       4.567       4.732    
        4.947       5.332       5.083       4.972       4.933    
   7    3.064       3.071       3.098       3.181       3.356       3.600       3.896       4.243       4.517       4.655    
        4.803       4.946       4.911       4.867       4.845    
   8    3.282       3.299       3.341       3.424       3.563       3.754       3.992       4.277       4.502       4.609    
        4.708       4.784       4.798       4.790       4.783    
   9    3.597       3.614       3.654       3.723       3.828       3.969       4.145       4.358       4.527       4.604    
        4.672       4.721       4.744       4.750       4.751    
  10    3.984       3.997       4.026       4.075       4.144       4.236       4.349       4.482       4.588       4.637    
        4.681       4.715       4.736       4.745       4.749    
  11    4.421       4.428       4.444       4.469       4.503       4.546       4.595       4.646       4.674       4.698    
        4.724       4.746       4.762       4.770       4.774    
  12    4.700       4.703       4.710       4.721       4.735       4.751       4.766       4.776       4.767       4.775    
        4.789       4.802       4.812       4.819       4.822    
  13    4.793       4.795       4.799       4.806       4.814       4.824       4.833       4.841       4.850       4.858    
        4.866       4.873       4.880       4.884       4.886    
  14    4.886       4.887       4.889       4.891       4.895       4.900       4.905       4.912       4.923       4.929    
        4.934       4.938       4.941       4.943       4.944    
  15    4.980       4.979       4.978       4.977       4.976       4.976       4.978       4.980       4.983       4.986    
        4.988       4.989       4.990       4.991       4.991    
  16    4.891       4.885       4.873       4.857       4.841       4.834       4.847       4.869       4.893       4.913    
        4.929       4.941       4.950       4.955       4.958    
  17    4.808       4.796       4.771       4.736       4.696       4.672       4.706       4.757       4.805       4.844    
        4.875       4.898       4.913       4.923       4.928    
  18    4.738       4.719       4.680       4.619       4.535       4.452       4.549       4.648       4.726       4.785    
        4.829       4.861       4.883       4.897       4.903    
  19    4.687       4.663       4.612       4.525       4.373       4.050       4.390       4.559       4.667       4.742    
        4.796       4.834       4.861       4.877       4.885    
  20    4.661       4.635       4.581       4.496       4.382       4.278       4.400       4.533       4.640       4.720    
        4.779       4.821       4.850       4.868       4.876    

 HEAD WILL BE SAVED ON UNIT   51 AT END OF TIME STEP   84, STRESS PERIOD    2

 DRAWDOWN WILL BE SAVED ON UNIT   52 AT END OF TIME STEP   84, STRESS PERIOD    2
1
  VOLUMETRIC BUDGET FOR ENTIRE MODEL AT END OF TIME STEP   84, STRESS PERIOD   2
  ------------------------------------------------------------------------------

     CUMULATIVE VOLUMES      L**3       RATES FOR THIS TIME STEP      L**3/T
     ------------------                 ------------------------

           IN:                                      IN:
           ---                                      ---
             STORAGE =         683.3799               STORAGE =           0.0000
       CONSTANT HEAD =       58192.7383         CONSTANT HEAD =         552.3667
               WELLS =       17400.0000                 WELLS =         200.0000
       RIVER LEAKAGE =      202316.8125         RIVER LEAKAGE =         642.1989

            TOTAL IN =      278592.9375              TOTAL IN =        1394.5656

          OUT:                                     OUT:
          ----                                     ----
             STORAGE =      231119.8438               STORAGE =         844.5628
       CONSTANT HEAD =           0.0000         CONSTANT HEAD =           0.0000
               WELLS =       46800.0000                 WELLS =         550.0000
       RIVER LEAKAGE =         673.0626         RIVER LEAKAGE =           0.0000

           TOTAL OUT =      278592.9062             TOTAL OUT =        1394.5627

            IN - OUT =       3.1250E-02              IN - OUT =       2.8076E-03

 PERCENT DISCREPANCY =           0.00     PERCENT DISCREPANCY =           0.00






         TIME SUMMARY AT END OF TIME STEP   84 IN STRESS PERIOD    2
                    SECONDS     MINUTES      HOURS       DAYS        YEARS
                    -----------------------------------------------------------
   TIME STEP LENGTH  86400.      1440.0      24.000      1.0000     2.73785E-03
 STRESS PERIOD TIME 7.25760E+06 1.20960E+05  2016.0      84.000     0.22998    
         TOTAL TIME 7.34400E+06 1.22400E+05  2040.0      85.000     0.23272    
1
 
 SOLVING FOR HEAD 

 OUTPUT CONTROL FOR STRESS PERIOD    2   TIME STEP   85
    SAVE HEAD FOR ALL LAYERS
    SAVE DRAWDOWN FOR ALL LAYERS
    SAVE BUDGET
    PRINT HEAD FOR ALL LAYERS
    PRINT BUDGET
 UBDSV1 SAVING "         STORAGE" ON UNIT   1 AT TIME STEP 85, STRESS PERIOD   2
 UBDSV2 SAVING "   CONSTANT HEAD" ON UNIT   1 AT TIME STEP 85, STRESS PERIOD   2
 UBDSV1 SAVING "FLOW RIGHT FACE " ON UNIT   1 AT TIME STEP 85, STRESS PERIOD   2
 UBDSV1 SAVING "FLOW FRONT FACE " ON UNIT   1 AT TIME STEP 85, STRESS PERIOD   2
1
              HEAD IN LAYER   1 AT END OF TIME STEP  85 IN STRESS PERIOD    2
  ---------------------------------------------------------------------------

            1           2           3           4           5           6           7           8           9          10
           11          12          13          14          15
 ........................................................................................................................
   1    5.550       5.550       5.550       5.550       5.550       5.550       5.550       5.550       5.550       5.550    
        5.550       5.550       5.550       5.550       5.550    
   2    4.639       4.609       4.559       4.535       4.649       4.800       4.961       5.161       5.286       5.338    
        5.380       5.409       5.425       5.431       5.433    
   3    3.891       3.819       3.672       3.508       3.842       4.177       4.480       4.790       5.035       5.139    
        5.225       5.285       5.313       5.321       5.321    
   4    3.353       3.243       2.938       2.102       3.170       3.725       4.136       4.529       4.825       4.961    
        5.099       5.197       5.223       5.220       5.214    
   5    3.071       3.005       2.875       2.744       3.141       3.557       3.955       4.369       4.685       4.843    
        5.017       5.186       5.164       5.127       5.105    
   6    3.001       2.981       2.961       3.002       3.234       3.545       3.895       4.289       4.598       4.764    
        4.982       5.370       5.124       5.022       4.979    
   7    3.092       3.098       3.126       3.208       3.383       3.626       3.922       4.268       4.543       4.683    
        4.833       4.977       4.944       4.902       4.879    
   8    3.306       3.323       3.365       3.448       3.587       3.778       4.015       4.299       4.525       4.632    
        4.732       4.809       4.824       4.816       4.809    
   9    3.616       3.634       3.673       3.742       3.847       3.988       4.164       4.376       4.546       4.623    
        4.691       4.741       4.764       4.770       4.771    
  10    3.998       4.011       4.041       4.089       4.159       4.250       4.363       4.496       4.603       4.652    
        4.697       4.731       4.751       4.761       4.765    
  11    4.429       4.436       4.452       4.477       4.511       4.554       4.604       4.656       4.685       4.710    
        4.736       4.758       4.774       4.783       4.787    
  12    4.704       4.708       4.715       4.726       4.740       4.756       4.771       4.782       4.774       4.783    
        4.797       4.810       4.821       4.827       4.831    
  13    4.796       4.798       4.802       4.809       4.817       4.827       4.837       4.845       4.854       4.862    
        4.871       4.878       4.885       4.889       4.891    
  14    4.888       4.889       4.890       4.893       4.897       4.901       4.907       4.914       4.925       4.931    
        4.936       4.940       4.943       4.945       4.946    
  15    4.980       4.980       4.979       4.977       4.976       4.976       4.978       4.981       4.983       4.986    
        4.988       4.989       4.990       4.991       4.991    
  16    4.891       4.885       4.873       4.857       4.841       4.834       4.847       4.869       4.893       4.913    
        4.929       4.942       4.950       4.956       4.958    
  17    4.808       4.796       4.771       4.736       4.696       4.673       4.707       4.757       4.805       4.845    
        4.875       4.898       4.914       4.924       4.928    
  18    4.738       4.720       4.681       4.619       4.536       4.453       4.550       4.648       4.727       4.786    
        4.830       4.861       4.883       4.897       4.904    
  19    4.688       4.664       4.613       4.526       4.374       4.051       4.391       4.560       4.667       4.742    
        4.796       4.835       4.862       4.878       4.886    
  20    4.661       4.635       4.581       4.497       4.383       4.278       4.401       4.534       4.640       4.721    
        4.779       4.821       4.850       4.868       4.877    

 HEAD WILL BE SAVED ON UNIT   51 AT END OF TIME STEP   85, STRESS PERIOD    2

 DRAWDOWN WILL BE SAVED ON UNIT   52 AT END OF TIME STEP   85, STRESS PERIOD    2
1
  VOLUMETRIC BUDGET FOR ENTIRE MODEL AT END OF TIME STEP   85, STRESS PERIOD   2
  ------------------------------------------------------------------------------

     CUMULATIVE VOLUMES      L**3       RATES FOR THIS TIME STEP      L**3/T
     ------------------                 ------------------------

           IN:                                      IN:
           ---                                      ---
             STORAGE =         683.3799               STORAGE =           0.0000
       CONSTANT HEAD =       58737.8438         CONSTANT HEAD =         545.1067
               WELLS =       17600.0000                 WELLS =         200.0000
       RIVER LEAKAGE =      202951.4219         RIVER LEAKAGE =         634.6087

            TOTAL IN =      279972.6250              TOTAL IN =        1379.7153

          OUT:                                     OUT:
          ----                                     ----
             STORAGE =      231949.5625               STORAGE =         829.7166
       CONSTANT HEAD =           0.0000         CONSTANT HEAD =           0.0000
               WELLS =       47350.0000                 WELLS =         550.0000
       RIVER LEAKAGE =         673.0626         RIVER LEAKAGE =           0.0000

           TOTAL OUT =      279972.6250             TOTAL OUT =        1379.7166

            IN - OUT =           0.0000              IN - OUT =      -1.2207E-03

 PERCENT DISCREPANCY =           0.00     PERCENT DISCREPANCY =          -0.00






         TIME SUMMARY AT END OF TIME STEP   85 IN STRESS PERIOD    2
                    SECONDS     MINUTES      HOURS       DAYS        YEARS
                    -----------------------------------------------------------
   TIME STEP LENGTH  86400.      1440.0      24.000      1.0000     2.73785E-03
 STRESS PERIOD TIME 7.34400E+06 1.22400E+05  2040.0      85.000     0.23272    
         TOTAL TIME 7.43040E+06 1.23840E+05  2064.0      86.000     0.23546    
1
 
 SOLVING FOR HEAD 

 OUTPUT CONTROL FOR STRESS PERIOD    2   TIME STEP   86
    SAVE HEAD FOR ALL LAYERS
    SAVE DRAWDOWN FOR ALL LAYERS
    SAVE BUDGET
    PRINT HEAD FOR ALL LAYERS
    PRINT BUDGET
 UBDSV1 SAVING "         STORAGE" ON UNIT   1 AT TIME STEP 86, STRESS PERIOD   2
 UBDSV2 SAVING "   CONSTANT HEAD" ON UNIT   1 AT TIME STEP 86, STRESS PERIOD   2
 UBDSV1 SAVING "FLOW RIGHT FACE " ON UNIT   1 AT TIME STEP 86, STRESS PERIOD   2
 UBDSV1 SAVING "FLOW FRONT FACE " ON UNIT   1 AT TIME STEP 86, STRESS PERIOD   2
1
              HEAD IN LAYER   1 AT END OF TIME STEP  86 IN STRESS PERIOD    2
  ---------------------------------------------------------------------------

            1           2           3           4           5           6           7           8           9          10
           11          12          13          14          15
 ........................................................................................................................
   1    5.580       5.580       5.580       5.580       5.580       5.580       5.580       5.580       5.580       5.580    
        5.580       5.580       5.580       5.580       5.580    
   2    4.670       4.640       4.590       4.565       4.680       4.831       4.993       5.195       5.322       5.373    
        5.415       5.445       5.460       5.467       5.469    
   3    3.922       3.851       3.704       3.540       3.874       4.209       4.513       4.827       5.079       5.180    
        5.266       5.326       5.353       5.361       5.363    
   4    3.384       3.274       2.970       2.134       3.201       3.756       4.169       4.564       4.865       5.004    
        5.145       5.242       5.268       5.267       5.262    
   5    3.102       3.037       2.906       2.775       3.171       3.587       3.986       4.401       4.722       4.884    
        5.073       5.235       5.213       5.179       5.160    
   6    3.030       3.011       2.990       3.032       3.263       3.574       3.924       4.318       4.630       4.801    
        5.032       5.416       5.172       5.083       5.042    
   7    3.119       3.125       3.153       3.235       3.409       3.653       3.948       4.294       4.570       4.712    
        4.867       5.016       4.982       4.942       4.920    
   8    3.330       3.347       3.388       3.472       3.610       3.800       4.037       4.321       4.548       4.656    
        4.758       4.837       4.852       4.845       4.838    
   9    3.636       3.653       3.692       3.761       3.866       4.007       4.183       4.395       4.565       4.642    
        4.711       4.762       4.785       4.792       4.793    
  10    4.012       4.025       4.055       4.103       4.173       4.264       4.377       4.511       4.617       4.667    
        4.712       4.747       4.768       4.778       4.781    
  11    4.437       4.444       4.460       4.485       4.519       4.563       4.613       4.665       4.696       4.721    
        4.748       4.770       4.786       4.795       4.799    
  12    4.708       4.712       4.719       4.730       4.744       4.760       4.776       4.787       4.781       4.790    
        4.805       4.819       4.829       4.836       4.839    
  13    4.799       4.801       4.805       4.812       4.821       4.830       4.840       4.849       4.858       4.867    
        4.875       4.883       4.890       4.894       4.896    
  14    4.889       4.890       4.892       4.895       4.898       4.903       4.909       4.916       4.926       4.933    
        4.938       4.942       4.946       4.948       4.949    
  15    4.980       4.980       4.979       4.978       4.977       4.977       4.978       4.981       4.984       4.986    
        4.988       4.990       4.991       4.991       4.992    
  16    4.891       4.885       4.873       4.857       4.841       4.835       4.847       4.870       4.893       4.914    
        4.930       4.942       4.951       4.956       4.959    
  17    4.809       4.796       4.772       4.736       4.697       4.673       4.707       4.758       4.806       4.845    
        4.876       4.898       4.914       4.924       4.929    
  18    4.739       4.720       4.681       4.620       4.536       4.453       4.550       4.649       4.727       4.786    
        4.830       4.862       4.884       4.898       4.904    
  19    4.688       4.664       4.613       4.526       4.374       4.051       4.391       4.560       4.668       4.743    
        4.797       4.836       4.862       4.879       4.887    
  20    4.662       4.636       4.582       4.497       4.383       4.279       4.401       4.534       4.641       4.721    
        4.780       4.822       4.851       4.869       4.877    

 HEAD WILL BE SAVED ON UNIT   51 AT END OF TIME STEP   86, STRESS PERIOD    2

 DRAWDOWN WILL BE SAVED ON UNIT   52 AT END OF TIME STEP   86, STRESS PERIOD    2
1
  VOLUMETRIC BUDGET FOR ENTIRE MODEL AT END OF TIME STEP   86, STRESS PERIOD   2
  ------------------------------------------------------------------------------

     CUMULATIVE VOLUMES      L**3       RATES FOR THIS TIME STEP      L**3/T
     ------------------                 ------------------------

           IN:                                      IN:
           ---                                      ---
             STORAGE =         683.3799               STORAGE =           0.0000
       CONSTANT HEAD =       59276.0117         CONSTANT HEAD =         538.1688
               WELLS =       17800.0000                 WELLS =         200.0000
       RIVER LEAKAGE =      203578.5156         RIVER LEAKAGE =         627.1000

            TOTAL IN =      281337.9062              TOTAL IN =        1365.2688

          OUT:                                     OUT:
          ----                                     ----
             STORAGE =      232764.8281               STORAGE =         815.2655
       CONSTANT HEAD =           0.0000         CONSTANT HEAD =           0.0000
               WELLS =       47900.0000                 WELLS =         550.0000
       RIVER LEAKAGE =         673.0626         RIVER LEAKAGE =           0.0000

           TOTAL OUT =      281337.8750             TOTAL OUT =        1365.2655

            IN - OUT =       3.1250E-02              IN - OUT =       3.2959E-03

 PERCENT DISCREPANCY =           0.00     PERCENT DISCREPANCY =           0.00






         TIME SUMMARY AT END OF TIME STEP   86 IN STRESS PERIOD    2
                    SECONDS     MINUTES      HOURS       DAYS        YEARS
                    -----------------------------------------------------------
   TIME STEP LENGTH  86400.      1440.0      24.000      1.0000     2.73785E-03
 STRESS PERIOD TIME 7.43040E+06 1.23840E+05  2064.0      86.000     0.23546    
         TOTAL TIME 7.51680E+06 1.25280E+05  2088.0      87.000     0.23819    
1
 
 SOLVING FOR HEAD 

 OUTPUT CONTROL FOR STRESS PERIOD    2   TIME STEP   87
    SAVE HEAD FOR ALL LAYERS
    SAVE DRAWDOWN FOR ALL LAYERS
    SAVE BUDGET
    PRINT HEAD FOR ALL LAYERS
    PRINT BUDGET
 UBDSV1 SAVING "         STORAGE" ON UNIT   1 AT TIME STEP 87, STRESS PERIOD   2
 UBDSV2 SAVING "   CONSTANT HEAD" ON UNIT   1 AT TIME STEP 87, STRESS PERIOD   2
 UBDSV1 SAVING "FLOW RIGHT FACE " ON UNIT   1 AT TIME STEP 87, STRESS PERIOD   2
 UBDSV1 SAVING "FLOW FRONT FACE " ON UNIT   1 AT TIME STEP 87, STRESS PERIOD   2
1
              HEAD IN LAYER   1 AT END OF TIME STEP  87 IN STRESS PERIOD    2
  ---------------------------------------------------------------------------

            1           2           3           4           5           6           7           8           9          10
           11          12          13          14          15
 ........................................................................................................................
   1    5.610       5.610       5.610       5.610       5.610       5.610       5.610       5.610       5.610       5.610    
        5.610       5.610       5.610       5.610       5.610    
   2    4.700       4.670       4.621       4.596       4.711       4.866       5.055       5.235       5.359       5.410    
        5.451       5.480       5.495       5.502       5.504    
   3    3.954       3.882       3.736       3.571       3.905       4.241       4.550       4.865       5.120       5.224    
        5.308       5.366       5.393       5.401       5.403    
   4    3.416       3.306       3.002       2.166       3.233       3.788       4.202       4.600       4.908       5.063    
        5.194       5.288       5.312       5.311       5.307    
   5    3.133       3.068       2.937       2.806       3.202       3.618       4.017       4.434       4.760       4.929    
        5.121       5.282       5.260       5.227       5.210    
   6    3.060       3.040       3.020       3.061       3.292       3.602       3.953       4.348       4.664       4.840    
        5.082       5.465       5.221       5.132       5.100    
   7    3.146       3.153       3.180       3.262       3.436       3.679       3.974       4.321       4.599       4.744    
        4.905       5.067       5.032       4.985       4.963    
   8    3.354       3.370       3.412       3.495       3.633       3.823       4.060       4.344       4.572       4.682    
        4.786       4.868       4.884       4.877       4.869    
   9    3.655       3.672       3.712       3.780       3.885       4.026       4.201       4.414       4.584       4.663    
        4.732       4.785       4.808       4.815       4.816    
  10    4.026       4.039       4.069       4.117       4.186       4.278       4.391       4.525       4.632       4.683    
        4.729       4.764       4.785       4.795       4.799    
  11    4.445       4.452       4.468       4.493       4.528       4.571       4.621       4.675       4.707       4.733    
        4.760       4.783       4.799       4.808       4.812    
  12    4.712       4.716       4.723       4.734       4.748       4.765       4.781       4.793       4.788       4.798    
        4.813       4.827       4.838       4.845       4.848    
  13    4.801       4.804       4.808       4.815       4.824       4.834       4.844       4.853       4.862       4.871    
        4.880       4.888       4.895       4.899       4.901    
  14    4.891       4.892       4.893       4.896       4.900       4.905       4.911       4.918       4.928       4.935    
        4.940       4.945       4.948       4.950       4.951    
  15    4.980       4.980       4.979       4.978       4.977       4.977       4.978       4.981       4.984       4.986    
        4.988       4.990       4.991       4.992       4.992    
  16    4.892       4.885       4.873       4.857       4.842       4.835       4.848       4.870       4.893       4.914    
        4.930       4.942       4.951       4.956       4.959    
  17    4.809       4.797       4.772       4.737       4.697       4.673       4.707       4.758       4.806       4.846    
        4.876       4.899       4.915       4.925       4.929    
  18    4.739       4.721       4.682       4.620       4.537       4.453       4.550       4.649       4.728       4.787    
        4.831       4.862       4.884       4.898       4.905    
  19    4.689       4.665       4.614       4.527       4.375       4.052       4.392       4.561       4.668       4.743    
        4.798       4.836       4.863       4.879       4.887    
  20    4.662       4.636       4.582       4.498       4.384       4.279       4.402       4.535       4.641       4.722    
        4.780       4.822       4.851       4.869       4.878    

 HEAD WILL BE SAVED ON UNIT   51 AT END OF TIME STEP   87, STRESS PERIOD    2

 DRAWDOWN WILL BE SAVED ON UNIT   52 AT END OF TIME STEP   87, STRESS PERIOD    2
1
  VOLUMETRIC BUDGET FOR ENTIRE MODEL AT END OF TIME STEP   87, STRESS PERIOD   2
  ------------------------------------------------------------------------------

     CUMULATIVE VOLUMES      L**3       RATES FOR THIS TIME STEP      L**3/T
     ------------------                 ------------------------

           IN:                                      IN:
           ---                                      ---
             STORAGE =         683.3799               STORAGE =           0.0000
       CONSTANT HEAD =       59804.8047         CONSTANT HEAD =         528.7928
               WELLS =       18000.0000                 WELLS =         200.0000
       RIVER LEAKAGE =      204198.1562         RIVER LEAKAGE =         619.6363

            TOTAL IN =      282686.3438              TOTAL IN =        1348.4291

          OUT:                                     OUT:
          ----                                     ----
             STORAGE =      233563.2656               STORAGE =         798.4309
       CONSTANT HEAD =           0.0000         CONSTANT HEAD =           0.0000
               WELLS =       48450.0000                 WELLS =         550.0000
       RIVER LEAKAGE =         673.0626         RIVER LEAKAGE =           0.0000

           TOTAL OUT =      282686.3125             TOTAL OUT =        1348.4309

            IN - OUT =       3.1250E-02              IN - OUT =      -1.8311E-03

 PERCENT DISCREPANCY =           0.00     PERCENT DISCREPANCY =          -0.00






         TIME SUMMARY AT END OF TIME STEP   87 IN STRESS PERIOD    2
                    SECONDS     MINUTES      HOURS       DAYS        YEARS
                    -----------------------------------------------------------
   TIME STEP LENGTH  86400.      1440.0      24.000      1.0000     2.73785E-03
 STRESS PERIOD TIME 7.51680E+06 1.25280E+05  2088.0      87.000     0.23819    
         TOTAL TIME 7.60320E+06 1.26720E+05  2112.0      88.000     0.24093    
1
 
 SOLVING FOR HEAD 

 OUTPUT CONTROL FOR STRESS PERIOD    2   TIME STEP   88
    SAVE HEAD FOR ALL LAYERS
    SAVE DRAWDOWN FOR ALL LAYERS
    SAVE BUDGET
    PRINT HEAD FOR ALL LAYERS
    PRINT BUDGET
 UBDSV1 SAVING "         STORAGE" ON UNIT   1 AT TIME STEP 88, STRESS PERIOD   2
 UBDSV2 SAVING "   CONSTANT HEAD" ON UNIT   1 AT TIME STEP 88, STRESS PERIOD   2
 UBDSV1 SAVING "FLOW RIGHT FACE " ON UNIT   1 AT TIME STEP 88, STRESS PERIOD   2
 UBDSV1 SAVING "FLOW FRONT FACE " ON UNIT   1 AT TIME STEP 88, STRESS PERIOD   2
1
              HEAD IN LAYER   1 AT END OF TIME STEP  88 IN STRESS PERIOD    2
  ---------------------------------------------------------------------------

            1           2           3           4           5           6           7           8           9          10
           11          12          13          14          15
 ........................................................................................................................
   1    5.640       5.640       5.640       5.640       5.640       5.640       5.640       5.640       5.640       5.640    
        5.640       5.640       5.640       5.640       5.640    
   2    4.731       4.701       4.651       4.627       4.742       4.900       5.097       5.271       5.392       5.444    
        5.485       5.513       5.529       5.536       5.538    
   3    3.985       3.914       3.767       3.603       3.937       4.275       4.587       4.903       5.157       5.261    
        5.345       5.403       5.430       5.438       5.440    
   4    3.447       3.338       3.034       2.198       3.264       3.820       4.235       4.637       4.948       5.102    
        5.233       5.327       5.352       5.351       5.347    
   5    3.164       3.099       2.968       2.837       3.232       3.648       4.048       4.468       4.798       4.969    
        5.161       5.323       5.302       5.271       5.254    
   6    3.089       3.070       3.049       3.090       3.320       3.631       3.981       4.379       4.698       4.877    
        5.121       5.507       5.267       5.180       5.147    
   7    3.173       3.179       3.207       3.288       3.462       3.705       4.000       4.348       4.629       4.777    
        4.941       5.107       5.082       5.040       5.012    
   8    3.377       3.394       3.435       3.518       3.656       3.846       4.082       4.367       4.596       4.708    
        4.815       4.900       4.919       4.912       4.904    
   9    3.674       3.691       3.730       3.799       3.904       4.044       4.220       4.433       4.604       4.683    
        4.755       4.808       4.833       4.841       4.841    
  10    4.040       4.053       4.082       4.130       4.200       4.292       4.405       4.539       4.648       4.699    
        4.745       4.781       4.803       4.813       4.817    
  11    4.453       4.460       4.476       4.501       4.536       4.579       4.630       4.684       4.718       4.744    
        4.772       4.795       4.812       4.821       4.825    
  12    4.717       4.720       4.728       4.738       4.753       4.770       4.786       4.798       4.795       4.806    
        4.822       4.836       4.847       4.854       4.857    
  13    4.804       4.807       4.811       4.818       4.827       4.837       4.847       4.856       4.866       4.876    
        4.885       4.893       4.900       4.904       4.906    
  14    4.892       4.893       4.895       4.898       4.902       4.907       4.913       4.920       4.930       4.937    
        4.942       4.947       4.950       4.952       4.953    
  15    4.980       4.980       4.979       4.978       4.977       4.977       4.979       4.981       4.984       4.987    
        4.988       4.990       4.991       4.992       4.992    
  16    4.892       4.886       4.874       4.858       4.842       4.835       4.848       4.870       4.894       4.914    
        4.930       4.943       4.951       4.957       4.959    
  17    4.810       4.797       4.772       4.737       4.697       4.674       4.708       4.759       4.807       4.846    
        4.877       4.899       4.915       4.925       4.930    
  18    4.740       4.721       4.682       4.621       4.537       4.454       4.551       4.650       4.728       4.787    
        4.831       4.863       4.885       4.899       4.905    
  19    4.689       4.665       4.614       4.527       4.375       4.052       4.392       4.561       4.669       4.744    
        4.798       4.837       4.863       4.880       4.888    
  20    4.663       4.637       4.583       4.498       4.384       4.280       4.402       4.535       4.642       4.722    
        4.781       4.823       4.852       4.870       4.878    

 HEAD WILL BE SAVED ON UNIT   51 AT END OF TIME STEP   88, STRESS PERIOD    2

 DRAWDOWN WILL BE SAVED ON UNIT   52 AT END OF TIME STEP   88, STRESS PERIOD    2
1
  VOLUMETRIC BUDGET FOR ENTIRE MODEL AT END OF TIME STEP   88, STRESS PERIOD   2
  ------------------------------------------------------------------------------

     CUMULATIVE VOLUMES      L**3       RATES FOR THIS TIME STEP      L**3/T
     ------------------                 ------------------------

           IN:                                      IN:
           ---                                      ---
             STORAGE =         683.3799               STORAGE =           0.0000
       CONSTANT HEAD =       60328.0508         CONSTANT HEAD =         523.2471
               WELLS =       18200.0000                 WELLS =         200.0000
       RIVER LEAKAGE =      204810.3594         RIVER LEAKAGE =         612.2029

            TOTAL IN =      284021.7812              TOTAL IN =        1335.4501

          OUT:                                     OUT:
          ----                                     ----
             STORAGE =      234348.7188               STORAGE =         785.4497
       CONSTANT HEAD =           0.0000         CONSTANT HEAD =           0.0000
               WELLS =       49000.0000                 WELLS =         550.0000
       RIVER LEAKAGE =         673.0626         RIVER LEAKAGE =           0.0000

           TOTAL OUT =      284021.7812             TOTAL OUT =        1335.4497

            IN - OUT =           0.0000              IN - OUT =       3.6621E-04

 PERCENT DISCREPANCY =           0.00     PERCENT DISCREPANCY =           0.00






         TIME SUMMARY AT END OF TIME STEP   88 IN STRESS PERIOD    2
                    SECONDS     MINUTES      HOURS       DAYS        YEARS
                    -----------------------------------------------------------
   TIME STEP LENGTH  86400.      1440.0      24.000      1.0000     2.73785E-03
 STRESS PERIOD TIME 7.60320E+06 1.26720E+05  2112.0      88.000     0.24093    
         TOTAL TIME 7.68960E+06 1.28160E+05  2136.0      89.000     0.24367    
1
 
 SOLVING FOR HEAD 

 OUTPUT CONTROL FOR STRESS PERIOD    2   TIME STEP   89
    SAVE HEAD FOR ALL LAYERS
    SAVE DRAWDOWN FOR ALL LAYERS
    SAVE BUDGET
    PRINT HEAD FOR ALL LAYERS
    PRINT BUDGET
 UBDSV1 SAVING "         STORAGE" ON UNIT   1 AT TIME STEP 89, STRESS PERIOD   2
 UBDSV2 SAVING "   CONSTANT HEAD" ON UNIT   1 AT TIME STEP 89, STRESS PERIOD   2
 UBDSV1 SAVING "FLOW RIGHT FACE " ON UNIT   1 AT TIME STEP 89, STRESS PERIOD   2
 UBDSV1 SAVING "FLOW FRONT FACE " ON UNIT   1 AT TIME STEP 89, STRESS PERIOD   2
1
              HEAD IN LAYER   1 AT END OF TIME STEP  89 IN STRESS PERIOD    2
  ---------------------------------------------------------------------------

            1           2           3           4           5           6           7           8           9          10
           11          12          13          14          15
 ........................................................................................................................
   1    5.670       5.670       5.670       5.670       5.670       5.670       5.670       5.670       5.670       5.670    
        5.670       5.670       5.670       5.670       5.670    
   2    4.762       4.732       4.682       4.658       4.774       4.934       5.131       5.304       5.425       5.477    
        5.518       5.546       5.562       5.569       5.571    
   3    4.016       3.945       3.798       3.635       3.969       4.308       4.622       4.939       5.192       5.296    
        5.380       5.438       5.466       5.475       5.477    
   4    3.479       3.369       3.065       2.230       3.296       3.852       4.269       4.673       4.985       5.140    
        5.270       5.365       5.391       5.392       5.389    
   5    3.194       3.129       2.999       2.868       3.263       3.679       4.080       4.502       4.835       5.010    
        5.199       5.363       5.344       5.315       5.300    
   6    3.119       3.099       3.078       3.119       3.349       3.660       4.011       4.410       4.732       4.914    
        5.158       5.546       5.310       5.229       5.201    
   7    3.200       3.206       3.233       3.315       3.488       3.731       4.026       4.375       4.659       4.809    
        4.976       5.144       5.125       5.095       5.079    
   8    3.401       3.417       3.458       3.541       3.679       3.868       4.105       4.391       4.621       4.735    
        4.844       4.932       4.953       4.951       4.945    
   9    3.693       3.710       3.749       3.818       3.922       4.063       4.238       4.452       4.624       4.705    
        4.777       4.833       4.859       4.868       4.869    
  10    4.053       4.067       4.096       4.144       4.214       4.305       4.418       4.554       4.663       4.716    
        4.763       4.800       4.822       4.833       4.837    
  11    4.460       4.468       4.484       4.509       4.544       4.587       4.638       4.693       4.729       4.756    
        4.785       4.809       4.825       4.835       4.839    
  12    4.721       4.724       4.732       4.743       4.757       4.774       4.791       4.804       4.802       4.814    
        4.830       4.845       4.856       4.863       4.867    
  13    4.807       4.809       4.814       4.821       4.830       4.840       4.851       4.860       4.870       4.880    
        4.890       4.899       4.905       4.909       4.912    
  14    4.894       4.895       4.896       4.899       4.903       4.908       4.914       4.922       4.932       4.939    
        4.945       4.949       4.953       4.955       4.956    
  15    4.981       4.980       4.979       4.978       4.977       4.977       4.979       4.981       4.984       4.987    
        4.989       4.990       4.991       4.992       4.992    
  16    4.892       4.886       4.874       4.858       4.842       4.835       4.848       4.871       4.894       4.914    
        4.931       4.943       4.952       4.957       4.960    
  17    4.810       4.797       4.773       4.737       4.698       4.674       4.708       4.759       4.807       4.846    
        4.877       4.900       4.915       4.925       4.930    
  18    4.740       4.721       4.682       4.621       4.537       4.454       4.551       4.650       4.728       4.788    
        4.832       4.863       4.885       4.899       4.906    
  19    4.690       4.666       4.615       4.528       4.376       4.053       4.392       4.562       4.669       4.744    
        4.799       4.837       4.864       4.880       4.888    
  20    4.663       4.637       4.583       4.499       4.385       4.280       4.403       4.536       4.642       4.723    
        4.781       4.823       4.852       4.870       4.879    

 HEAD WILL BE SAVED ON UNIT   51 AT END OF TIME STEP   89, STRESS PERIOD    2

 DRAWDOWN WILL BE SAVED ON UNIT   52 AT END OF TIME STEP   89, STRESS PERIOD    2
1
  VOLUMETRIC BUDGET FOR ENTIRE MODEL AT END OF TIME STEP   89, STRESS PERIOD   2
  ------------------------------------------------------------------------------

     CUMULATIVE VOLUMES      L**3       RATES FOR THIS TIME STEP      L**3/T
     ------------------                 ------------------------

           IN:                                      IN:
           ---                                      ---
             STORAGE =         683.3799               STORAGE =           0.0000
       CONSTANT HEAD =       60847.1328         CONSTANT HEAD =         519.0807
               WELLS =       18400.0000                 WELLS =         200.0000
       RIVER LEAKAGE =      205415.1250         RIVER LEAKAGE =         604.7669

            TOTAL IN =      285345.6250              TOTAL IN =        1323.8477

          OUT:                                     OUT:
          ----                                     ----
             STORAGE =      235122.5625               STORAGE =         773.8480
       CONSTANT HEAD =           0.0000         CONSTANT HEAD =           0.0000
               WELLS =       49550.0000                 WELLS =         550.0000
       RIVER LEAKAGE =         673.0626         RIVER LEAKAGE =           0.0000

           TOTAL OUT =      285345.6250             TOTAL OUT =        1323.8479

            IN - OUT =           0.0000              IN - OUT =      -2.4414E-04

 PERCENT DISCREPANCY =           0.00     PERCENT DISCREPANCY =          -0.00






         TIME SUMMARY AT END OF TIME STEP   89 IN STRESS PERIOD    2
                    SECONDS     MINUTES      HOURS       DAYS        YEARS
                    -----------------------------------------------------------
   TIME STEP LENGTH  86400.      1440.0      24.000      1.0000     2.73785E-03
 STRESS PERIOD TIME 7.68960E+06 1.28160E+05  2136.0      89.000     0.24367    
         TOTAL TIME 7.77600E+06 1.29600E+05  2160.0      90.000     0.24641    
1
 
 SOLVING FOR HEAD 

 OUTPUT CONTROL FOR STRESS PERIOD    2   TIME STEP   90
    SAVE HEAD FOR ALL LAYERS
    SAVE DRAWDOWN FOR ALL LAYERS
    SAVE BUDGET
    PRINT HEAD FOR ALL LAYERS
    PRINT BUDGET
 UBDSV1 SAVING "         STORAGE" ON UNIT   1 AT TIME STEP 90, STRESS PERIOD   2
 UBDSV2 SAVING "   CONSTANT HEAD" ON UNIT   1 AT TIME STEP 90, STRESS PERIOD   2
 UBDSV1 SAVING "FLOW RIGHT FACE " ON UNIT   1 AT TIME STEP 90, STRESS PERIOD   2
 UBDSV1 SAVING "FLOW FRONT FACE " ON UNIT   1 AT TIME STEP 90, STRESS PERIOD   2
1
              HEAD IN LAYER   1 AT END OF TIME STEP  90 IN STRESS PERIOD    2
  ---------------------------------------------------------------------------

            1           2           3           4           5           6           7           8           9          10
           11          12          13          14          15
 ........................................................................................................................
   1    5.700       5.700       5.700       5.700       5.700       5.700       5.700       5.700       5.700       5.700    
        5.700       5.700       5.700       5.700       5.700    
   2    4.792       4.762       4.713       4.689       4.805       4.966       5.164       5.338       5.460       5.511    
        5.551       5.580       5.595       5.601       5.604    
   3    4.047       3.976       3.830       3.666       4.001       4.341       4.657       4.976       5.234       5.336    
        5.418       5.475       5.501       5.510       5.512    
   4    3.510       3.400       3.097       2.262       3.328       3.885       4.303       4.711       5.037       5.186    
        5.312       5.403       5.428       5.428       5.425    
   5    3.225       3.160       3.030       2.899       3.293       3.710       4.112       4.538       4.878       5.064    
        5.243       5.402       5.382       5.353       5.338    
   6    3.148       3.128       3.107       3.148       3.378       3.688       4.040       4.442       4.768       4.953    
        5.198       5.584       5.348       5.267       5.240    
   7    3.227       3.233       3.260       3.341       3.514       3.757       4.052       4.403       4.689       4.842    
        5.014       5.179       5.160       5.132       5.117    
   8    3.424       3.440       3.481       3.564       3.701       3.891       4.128       4.414       4.647       4.762    
        4.874       4.963       4.986       4.985       4.982    
   9    3.711       3.729       3.768       3.836       3.941       4.081       4.257       4.471       4.645       4.727    
        4.801       4.857       4.885       4.895       4.897    
  10    4.067       4.080       4.109       4.157       4.227       4.319       4.432       4.569       4.679       4.732    
        4.781       4.818       4.842       4.853       4.858    
  11    4.468       4.476       4.492       4.517       4.551       4.595       4.647       4.703       4.740       4.769    
        4.798       4.822       4.839       4.849       4.854    
  12    4.725       4.728       4.736       4.747       4.761       4.779       4.796       4.810       4.809       4.822    
        4.839       4.854       4.866       4.873       4.876    
  13    4.810       4.812       4.817       4.824       4.833       4.843       4.854       4.864       4.875       4.885    
        4.895       4.904       4.911       4.915       4.917    
  14    4.895       4.896       4.898       4.901       4.905       4.910       4.916       4.924       4.934       4.941    
        4.947       4.951       4.955       4.957       4.958    
  15    4.981       4.980       4.979       4.978       4.977       4.977       4.979       4.982       4.984       4.987    
        4.989       4.990       4.992       4.992       4.993    
  16    4.892       4.886       4.874       4.858       4.842       4.836       4.849       4.871       4.894       4.915    
        4.931       4.943       4.952       4.957       4.960    
  17    4.810       4.798       4.773       4.738       4.698       4.674       4.708       4.759       4.807       4.847    
        4.877       4.900       4.916       4.926       4.930    
  18    4.741       4.722       4.683       4.622       4.538       4.455       4.552       4.651       4.729       4.788    
        4.832       4.864       4.886       4.899       4.906    
  19    4.690       4.666       4.615       4.528       4.376       4.053       4.393       4.562       4.670       4.745    
        4.799       4.838       4.864       4.881       4.889    
  20    4.664       4.638       4.584       4.499       4.385       4.281       4.403       4.536       4.643       4.723    
        4.782       4.824       4.853       4.871       4.879    

 HEAD WILL BE SAVED ON UNIT   51 AT END OF TIME STEP   90, STRESS PERIOD    2

 DRAWDOWN WILL BE SAVED ON UNIT   52 AT END OF TIME STEP   90, STRESS PERIOD    2
1
  VOLUMETRIC BUDGET FOR ENTIRE MODEL AT END OF TIME STEP   90, STRESS PERIOD   2
  ------------------------------------------------------------------------------

     CUMULATIVE VOLUMES      L**3       RATES FOR THIS TIME STEP      L**3/T
     ------------------                 ------------------------

           IN:                                      IN:
           ---                                      ---
             STORAGE =         683.3799               STORAGE =           0.0000
       CONSTANT HEAD =       61361.4883         CONSTANT HEAD =         514.3556
               WELLS =       18600.0000                 WELLS =         200.0000
       RIVER LEAKAGE =      206012.4219         RIVER LEAKAGE =         597.3024

            TOTAL IN =      286657.2812              TOTAL IN =        1311.6580

          OUT:                                     OUT:
          ----                                     ----
             STORAGE =      235884.2188               STORAGE =         761.6588
       CONSTANT HEAD =           0.0000         CONSTANT HEAD =           0.0000
               WELLS =       50100.0000                 WELLS =         550.0000
       RIVER LEAKAGE =         673.0626         RIVER LEAKAGE =           0.0000

           TOTAL OUT =      286657.2812             TOTAL OUT =        1311.6588

            IN - OUT =           0.0000              IN - OUT =      -8.5449E-04

 PERCENT DISCREPANCY =           0.00     PERCENT DISCREPANCY =          -0.00






         TIME SUMMARY AT END OF TIME STEP   90 IN STRESS PERIOD    2
                    SECONDS     MINUTES      HOURS       DAYS        YEARS
                    -----------------------------------------------------------
   TIME STEP LENGTH  86400.      1440.0      24.000      1.0000     2.73785E-03
 STRESS PERIOD TIME 7.77600E+06 1.29600E+05  2160.0      90.000     0.24641    
         TOTAL TIME 7.86240E+06 1.31040E+05  2184.0      91.000     0.24914    
1
 
 SOLVING FOR HEAD 

 OUTPUT CONTROL FOR STRESS PERIOD    2   TIME STEP   91
    SAVE HEAD FOR ALL LAYERS
    SAVE DRAWDOWN FOR ALL LAYERS
    SAVE BUDGET
    PRINT HEAD FOR ALL LAYERS
    PRINT BUDGET
 UBDSV1 SAVING "         STORAGE" ON UNIT   1 AT TIME STEP 91, STRESS PERIOD   2
 UBDSV2 SAVING "   CONSTANT HEAD" ON UNIT   1 AT TIME STEP 91, STRESS PERIOD   2
 UBDSV1 SAVING "FLOW RIGHT FACE " ON UNIT   1 AT TIME STEP 91, STRESS PERIOD   2
 UBDSV1 SAVING "FLOW FRONT FACE " ON UNIT   1 AT TIME STEP 91, STRESS PERIOD   2
1
              HEAD IN LAYER   1 AT END OF TIME STEP  91 IN STRESS PERIOD    2
  ---------------------------------------------------------------------------

            1           2           3           4           5           6           7           8           9          10
           11          12          13          14          15
 ........................................................................................................................
   1    5.730       5.730       5.730       5.730       5.730       5.730       5.730       5.730       5.730       5.730    
        5.730       5.730       5.730       5.730       5.730    
   2    4.823       4.793       4.743       4.720       4.837       4.999       5.198       5.375       5.496       5.546    
        5.585       5.613       5.628       5.634       5.636    
   3    4.078       4.007       3.861       3.698       4.033       4.374       4.694       5.027       5.276       5.376    
        5.455       5.511       5.537       5.545       5.547    
   4    3.541       3.431       3.128       2.294       3.359       3.917       4.338       4.752       5.085       5.228    
        5.351       5.442       5.466       5.466       5.463    
   5    3.255       3.190       3.060       2.929       3.324       3.740       4.144       4.575       4.920       5.105    
        5.284       5.442       5.422       5.393       5.378    
   6    3.177       3.157       3.136       3.176       3.406       3.717       4.070       4.475       4.805       4.992    
        5.239       5.625       5.389       5.309       5.282    
   7    3.253       3.259       3.286       3.367       3.540       3.782       4.079       4.432       4.721       4.878    
        5.060       5.221       5.204       5.177       5.163    
   8    3.447       3.463       3.504       3.586       3.724       3.913       4.151       4.439       4.674       4.791    
        4.906       4.998       5.032       5.036       5.033    
   9    3.730       3.747       3.786       3.855       3.959       4.099       4.275       4.491       4.666       4.749    
        4.825       4.884       4.915       4.927       4.930    
  10    4.080       4.094       4.123       4.171       4.240       4.332       4.446       4.583       4.696       4.750    
        4.799       4.838       4.863       4.875       4.880    
  11    4.476       4.483       4.499       4.524       4.559       4.603       4.655       4.713       4.752       4.781    
        4.811       4.836       4.854       4.865       4.869    
  12    4.729       4.732       4.740       4.751       4.766       4.783       4.801       4.815       4.816       4.831    
        4.848       4.864       4.876       4.883       4.887    
  13    4.813       4.815       4.820       4.827       4.836       4.846       4.857       4.868       4.879       4.890    
        4.900       4.909       4.916       4.921       4.923    
  14    4.897       4.898       4.899       4.902       4.906       4.912       4.918       4.926       4.936       4.944    
        4.949       4.954       4.957       4.960       4.961    
  15    4.981       4.980       4.980       4.978       4.977       4.977       4.979       4.982       4.985       4.987    
        4.989       4.991       4.992       4.993       4.993    
  16    4.893       4.886       4.874       4.858       4.843       4.836       4.849       4.871       4.895       4.915    
        4.931       4.944       4.952       4.958       4.960    
  17    4.810       4.798       4.773       4.738       4.698       4.675       4.709       4.760       4.808       4.847    
        4.878       4.900       4.916       4.926       4.931    
  18    4.741       4.722       4.683       4.622       4.538       4.455       4.552       4.651       4.729       4.788    
        4.832       4.864       4.886       4.900       4.906    
  19    4.690       4.666       4.616       4.528       4.377       4.054       4.393       4.563       4.670       4.745    
        4.799       4.838       4.864       4.881       4.889    
  20    4.664       4.638       4.584       4.499       4.386       4.281       4.404       4.536       4.643       4.724    
        4.782       4.824       4.853       4.871       4.880    

 HEAD WILL BE SAVED ON UNIT   51 AT END OF TIME STEP   91, STRESS PERIOD    2

 DRAWDOWN WILL BE SAVED ON UNIT   52 AT END OF TIME STEP   91, STRESS PERIOD    2
1
  VOLUMETRIC BUDGET FOR ENTIRE MODEL AT END OF TIME STEP   91, STRESS PERIOD   2
  ------------------------------------------------------------------------------

     CUMULATIVE VOLUMES      L**3       RATES FOR THIS TIME STEP      L**3/T
     ------------------                 ------------------------

           IN:                                      IN:
           ---                                      ---
             STORAGE =         683.3799               STORAGE =           0.0000
       CONSTANT HEAD =       61870.7812         CONSTANT HEAD =         509.2943
               WELLS =       18800.0000                 WELLS =         200.0000
       RIVER LEAKAGE =      206602.2031         RIVER LEAKAGE =         589.7888

            TOTAL IN =      287956.3750              TOTAL IN =        1299.0831

          OUT:                                     OUT:
          ----                                     ----
             STORAGE =      236633.2969               STORAGE =         749.0811
       CONSTANT HEAD =           0.0000         CONSTANT HEAD =           0.0000
               WELLS =       50650.0000                 WELLS =         550.0000
       RIVER LEAKAGE =         673.0626         RIVER LEAKAGE =           0.0000

           TOTAL OUT =      287956.3750             TOTAL OUT =        1299.0811

            IN - OUT =           0.0000              IN - OUT =       2.0752E-03

 PERCENT DISCREPANCY =           0.00     PERCENT DISCREPANCY =           0.00






         TIME SUMMARY AT END OF TIME STEP   91 IN STRESS PERIOD    2
                    SECONDS     MINUTES      HOURS       DAYS        YEARS
                    -----------------------------------------------------------
   TIME STEP LENGTH  86400.      1440.0      24.000      1.0000     2.73785E-03
 STRESS PERIOD TIME 7.86240E+06 1.31040E+05  2184.0      91.000     0.24914    
         TOTAL TIME 7.94880E+06 1.32480E+05  2208.0      92.000     0.25188    
1
 
 SOLVING FOR HEAD 

 OUTPUT CONTROL FOR STRESS PERIOD    2   TIME STEP   92
    SAVE HEAD FOR ALL LAYERS
    SAVE DRAWDOWN FOR ALL LAYERS
    SAVE BUDGET
    PRINT HEAD FOR ALL LAYERS
    PRINT BUDGET
 UBDSV1 SAVING "         STORAGE" ON UNIT   1 AT TIME STEP 92, STRESS PERIOD   2
 UBDSV2 SAVING "   CONSTANT HEAD" ON UNIT   1 AT TIME STEP 92, STRESS PERIOD   2
 UBDSV1 SAVING "FLOW RIGHT FACE " ON UNIT   1 AT TIME STEP 92, STRESS PERIOD   2
 UBDSV1 SAVING "FLOW FRONT FACE " ON UNIT   1 AT TIME STEP 92, STRESS PERIOD   2
1
              HEAD IN LAYER   1 AT END OF TIME STEP  92 IN STRESS PERIOD    2
  ---------------------------------------------------------------------------

            1           2           3           4           5           6           7           8           9          10
           11          12          13          14          15
 ........................................................................................................................
   1    5.760       5.760       5.760       5.760       5.760       5.760       5.760       5.760       5.760       5.760    
        5.760       5.760       5.760       5.760       5.760    
   2    4.853       4.823       4.774       4.751       4.872       5.067       5.243       5.419       5.533       5.581    
        5.619       5.646       5.661       5.667       5.669    
   3    4.109       4.038       3.892       3.729       4.066       4.413       4.734       5.092       5.319       5.415    
        5.493       5.548       5.573       5.581       5.583    
   4    3.572       3.462       3.159       2.326       3.391       3.950       4.374       4.795       5.127       5.270    
        5.392       5.482       5.505       5.505       5.502    
   5    3.286       3.221       3.090       2.960       3.354       3.772       4.177       4.612       4.962       5.150    
        5.327       5.485       5.464       5.435       5.421    
   6    3.205       3.185       3.165       3.205       3.435       3.746       4.100       4.508       4.845       5.045    
        5.285       5.670       5.435       5.355       5.328    
   7    3.279       3.285       3.312       3.393       3.566       3.808       4.105       4.461       4.755       4.917    
        5.102       5.268       5.252       5.226       5.213    
   8    3.469       3.485       3.527       3.609       3.746       3.936       4.174       4.463       4.702       4.822    
        4.943       5.051       5.084       5.089       5.088    
   9    3.748       3.765       3.804       3.873       3.977       4.117       4.294       4.511       4.688       4.774    
        4.853       4.916       4.949       4.963       4.967    
  10    4.093       4.107       4.136       4.184       4.254       4.345       4.460       4.598       4.713       4.768    
        4.819       4.860       4.886       4.899       4.905    
  11    4.483       4.491       4.507       4.532       4.567       4.611       4.664       4.722       4.764       4.794    
        4.825       4.851       4.870       4.881       4.886    
  12    4.733       4.736       4.744       4.755       4.770       4.788       4.806       4.821       4.824       4.839    
        4.857       4.874       4.886       4.894       4.897    
  13    4.815       4.818       4.822       4.829       4.839       4.849       4.861       4.872       4.883       4.895    
        4.906       4.915       4.922       4.927       4.929    
  14    4.898       4.899       4.901       4.904       4.908       4.913       4.920       4.927       4.938       4.946    
        4.952       4.956       4.960       4.962       4.964    
  15    4.981       4.981       4.980       4.979       4.978       4.978       4.979       4.982       4.985       4.987    
        4.989       4.991       4.992       4.993       4.993    
  16    4.893       4.887       4.875       4.859       4.843       4.836       4.849       4.871       4.895       4.915    
        4.932       4.944       4.953       4.958       4.961    
  17    4.811       4.798       4.774       4.738       4.699       4.675       4.709       4.760       4.808       4.847    
        4.878       4.901       4.916       4.926       4.931    
  18    4.741       4.722       4.684       4.622       4.538       4.455       4.552       4.651       4.730       4.789    
        4.833       4.864       4.886       4.900       4.907    
  19    4.691       4.667       4.616       4.529       4.377       4.054       4.394       4.563       4.670       4.746    
        4.800       4.838       4.865       4.881       4.889    
  20    4.664       4.639       4.585       4.500       4.386       4.282       4.404       4.537       4.644       4.724    
        4.783       4.825       4.854       4.872       4.880    

 HEAD WILL BE SAVED ON UNIT   51 AT END OF TIME STEP   92, STRESS PERIOD    2

 DRAWDOWN WILL BE SAVED ON UNIT   52 AT END OF TIME STEP   92, STRESS PERIOD    2
1
  VOLUMETRIC BUDGET FOR ENTIRE MODEL AT END OF TIME STEP   92, STRESS PERIOD   2
  ------------------------------------------------------------------------------

     CUMULATIVE VOLUMES      L**3       RATES FOR THIS TIME STEP      L**3/T
     ------------------                 ------------------------

           IN:                                      IN:
           ---                                      ---
             STORAGE =         683.3799               STORAGE =           0.0000
       CONSTANT HEAD =       62371.0977         CONSTANT HEAD =         500.3171
               WELLS =       19000.0000                 WELLS =         200.0000
       RIVER LEAKAGE =      207184.3906         RIVER LEAKAGE =         582.1807

            TOTAL IN =      289238.8750              TOTAL IN =        1282.4978

          OUT:                                     OUT:
          ----                                     ----
             STORAGE =      237365.7969               STORAGE =         732.4979
       CONSTANT HEAD =           0.0000         CONSTANT HEAD =           0.0000
               WELLS =       51200.0000                 WELLS =         550.0000
       RIVER LEAKAGE =         673.0626         RIVER LEAKAGE =           0.0000

           TOTAL OUT =      289238.8750             TOTAL OUT =        1282.4979

            IN - OUT =           0.0000              IN - OUT =      -1.2207E-04

 PERCENT DISCREPANCY =           0.00     PERCENT DISCREPANCY =          -0.00






         TIME SUMMARY AT END OF TIME STEP   92 IN STRESS PERIOD    2
                    SECONDS     MINUTES      HOURS       DAYS        YEARS
                    -----------------------------------------------------------
   TIME STEP LENGTH  86400.      1440.0      24.000      1.0000     2.73785E-03
 STRESS PERIOD TIME 7.94880E+06 1.32480E+05  2208.0      92.000     0.25188    
         TOTAL TIME 8.03520E+06 1.33920E+05  2232.0      93.000     0.25462    
1
 
 SOLVING FOR HEAD 

 OUTPUT CONTROL FOR STRESS PERIOD    2   TIME STEP   93
    SAVE HEAD FOR ALL LAYERS
    SAVE DRAWDOWN FOR ALL LAYERS
    SAVE BUDGET
    PRINT HEAD FOR ALL LAYERS
    PRINT BUDGET
 UBDSV1 SAVING "         STORAGE" ON UNIT   1 AT TIME STEP 93, STRESS PERIOD   2
 UBDSV2 SAVING "   CONSTANT HEAD" ON UNIT   1 AT TIME STEP 93, STRESS PERIOD   2
 UBDSV1 SAVING "FLOW RIGHT FACE " ON UNIT   1 AT TIME STEP 93, STRESS PERIOD   2
 UBDSV1 SAVING "FLOW FRONT FACE " ON UNIT   1 AT TIME STEP 93, STRESS PERIOD   2
1
              HEAD IN LAYER   1 AT END OF TIME STEP  93 IN STRESS PERIOD    2
  ---------------------------------------------------------------------------

            1           2           3           4           5           6           7           8           9          10
           11          12          13          14          15
 ........................................................................................................................
   1    5.790       5.790       5.790       5.790       5.790       5.790       5.790       5.790       5.790       5.790    
        5.790       5.790       5.790       5.790       5.790    
   2    4.884       4.854       4.805       4.783       4.907       5.105       5.278       5.453       5.567       5.614    
        5.652       5.679       5.693       5.699       5.701    
   3    4.140       4.069       3.923       3.761       4.100       4.450       4.774       5.131       5.356       5.451    
        5.528       5.582       5.607       5.615       5.617    
   4    3.603       3.493       3.190       2.358       3.424       3.984       4.410       4.835       5.166       5.308    
        5.429       5.518       5.541       5.541       5.537    
   5    3.316       3.251       3.121       2.990       3.385       3.803       4.211       4.650       5.002       5.190    
        5.365       5.522       5.501       5.472       5.457    
   6    3.234       3.214       3.193       3.233       3.463       3.775       4.131       4.543       4.883       5.087    
        5.324       5.708       5.472       5.392       5.365    
   7    3.305       3.311       3.338       3.419       3.591       3.834       4.132       4.491       4.789       4.953    
        5.139       5.305       5.289       5.263       5.250    
   8    3.492       3.508       3.549       3.631       3.768       3.958       4.197       4.489       4.730       4.853    
        4.977       5.086       5.119       5.124       5.124    
   9    3.766       3.784       3.823       3.891       3.995       4.136       4.313       4.531       4.711       4.798    
        4.880       4.946       4.980       4.995       4.999    
  10    4.106       4.120       4.149       4.197       4.267       4.359       4.474       4.614       4.730       4.787    
        4.839       4.882       4.909       4.924       4.930    
  11    4.491       4.498       4.514       4.540       4.575       4.619       4.672       4.732       4.776       4.808    
        4.840       4.867       4.887       4.898       4.903    
  12    4.737       4.740       4.748       4.759       4.774       4.792       4.811       4.827       4.831       4.848    
        4.867       4.884       4.897       4.905       4.909    
  13    4.818       4.820       4.825       4.832       4.841       4.853       4.864       4.875       4.888       4.900    
        4.911       4.921       4.928       4.933       4.935    
  14    4.900       4.901       4.902       4.905       4.910       4.915       4.922       4.929       4.940       4.948    
        4.954       4.959       4.963       4.965       4.966    
  15    4.981       4.981       4.980       4.979       4.978       4.978       4.979       4.982       4.985       4.988    
        4.990       4.991       4.992       4.993       4.993    
  16    4.893       4.887       4.875       4.859       4.843       4.836       4.849       4.872       4.895       4.916    
        4.932       4.944       4.953       4.958       4.961    
  17    4.811       4.799       4.774       4.739       4.699       4.675       4.709       4.760       4.808       4.848    
        4.878       4.901       4.917       4.927       4.932    
  18    4.742       4.723       4.684       4.623       4.539       4.456       4.553       4.652       4.730       4.789    
        4.833       4.865       4.887       4.901       4.907    
  19    4.691       4.667       4.616       4.529       4.377       4.054       4.394       4.563       4.671       4.746    
        4.800       4.839       4.865       4.882       4.890    
  20    4.665       4.639       4.585       4.500       4.386       4.282       4.404       4.537       4.644       4.724    
        4.783       4.825       4.854       4.872       4.881    

 HEAD WILL BE SAVED ON UNIT   51 AT END OF TIME STEP   93, STRESS PERIOD    2

 DRAWDOWN WILL BE SAVED ON UNIT   52 AT END OF TIME STEP   93, STRESS PERIOD    2
1
  VOLUMETRIC BUDGET FOR ENTIRE MODEL AT END OF TIME STEP   93, STRESS PERIOD   2
  ------------------------------------------------------------------------------

     CUMULATIVE VOLUMES      L**3       RATES FOR THIS TIME STEP      L**3/T
     ------------------                 ------------------------

           IN:                                      IN:
           ---                                      ---
             STORAGE =         683.3799               STORAGE =           0.0000
       CONSTANT HEAD =       62867.1914         CONSTANT HEAD =         496.0942
               WELLS =       19200.0000                 WELLS =         200.0000
       RIVER LEAKAGE =      207758.8438         RIVER LEAKAGE =         574.4587

            TOTAL IN =      290509.4062              TOTAL IN =        1270.5530

          OUT:                                     OUT:
          ----                                     ----
             STORAGE =      238086.3438               STORAGE =         720.5513
       CONSTANT HEAD =           0.0000         CONSTANT HEAD =           0.0000
               WELLS =       51750.0000                 WELLS =         550.0000
       RIVER LEAKAGE =         673.0626         RIVER LEAKAGE =           0.0000

           TOTAL OUT =      290509.4062             TOTAL OUT =        1270.5513

            IN - OUT =           0.0000              IN - OUT =       1.7090E-03

 PERCENT DISCREPANCY =           0.00     PERCENT DISCREPANCY =           0.00






         TIME SUMMARY AT END OF TIME STEP   93 IN STRESS PERIOD    2
                    SECONDS     MINUTES      HOURS       DAYS        YEARS
                    -----------------------------------------------------------
   TIME STEP LENGTH  86400.      1440.0      24.000      1.0000     2.73785E-03
 STRESS PERIOD TIME 8.03520E+06 1.33920E+05  2232.0      93.000     0.25462    
         TOTAL TIME 8.12160E+06 1.35360E+05  2256.0      94.000     0.25736    
1
 
 SOLVING FOR HEAD 

 OUTPUT CONTROL FOR STRESS PERIOD    2   TIME STEP   94
    SAVE HEAD FOR ALL LAYERS
    SAVE DRAWDOWN FOR ALL LAYERS
    SAVE BUDGET
    PRINT HEAD FOR ALL LAYERS
    PRINT BUDGET
 UBDSV1 SAVING "         STORAGE" ON UNIT   1 AT TIME STEP 94, STRESS PERIOD   2
 UBDSV2 SAVING "   CONSTANT HEAD" ON UNIT   1 AT TIME STEP 94, STRESS PERIOD   2
 UBDSV1 SAVING "FLOW RIGHT FACE " ON UNIT   1 AT TIME STEP 94, STRESS PERIOD   2
 UBDSV1 SAVING "FLOW FRONT FACE " ON UNIT   1 AT TIME STEP 94, STRESS PERIOD   2
1
              HEAD IN LAYER   1 AT END OF TIME STEP  94 IN STRESS PERIOD    2
  ---------------------------------------------------------------------------

            1           2           3           4           5           6           7           8           9          10
           11          12          13          14          15
 ........................................................................................................................
   1    5.820       5.820       5.820       5.820       5.820       5.820       5.820       5.820       5.820       5.820    
        5.820       5.820       5.820       5.820       5.820    
   2    4.914       4.884       4.835       4.814       4.940       5.138       5.312       5.488       5.601       5.648    
        5.685       5.711       5.725       5.731       5.733    
   3    4.171       4.100       3.954       3.793       4.133       4.486       4.811       5.168       5.395       5.488    
        5.564       5.617       5.642       5.650       5.651    
   4    3.634       3.524       3.221       2.390       3.456       4.018       4.447       4.876       5.211       5.350    
        5.468       5.555       5.578       5.577       5.574    
   5    3.346       3.281       3.151       3.020       3.416       3.835       4.245       4.690       5.061       5.235    
        5.406       5.561       5.539       5.511       5.496    
   6    3.262       3.242       3.221       3.261       3.492       3.804       4.162       4.578       4.925       5.128    
        5.364       5.747       5.512       5.433       5.407    
   7    3.331       3.337       3.363       3.444       3.617       3.860       4.160       4.522       4.824       4.990    
        5.177       5.344       5.330       5.306       5.295    
   8    3.514       3.530       3.571       3.653       3.791       3.981       4.220       4.515       4.759       4.885    
        5.014       5.124       5.161       5.172       5.174    
   9    3.784       3.801       3.840       3.909       4.013       4.154       4.332       4.552       4.735       4.824    
        4.908       4.978       5.024       5.050       5.060    
  10    4.119       4.133       4.162       4.210       4.280       4.372       4.488       4.629       4.748       4.806    
        4.861       4.906       4.937       4.955       4.963    
  11    4.498       4.506       4.522       4.547       4.582       4.627       4.681       4.742       4.789       4.821    
        4.855       4.884       4.905       4.918       4.924    
  12    4.741       4.744       4.752       4.763       4.778       4.797       4.816       4.832       4.839       4.857    
        4.877       4.895       4.908       4.917       4.921    
  13    4.821       4.823       4.828       4.835       4.844       4.856       4.868       4.879       4.892       4.905    
        4.917       4.927       4.935       4.940       4.942    
  14    4.901       4.902       4.904       4.907       4.911       4.917       4.923       4.931       4.942       4.950    
        4.957       4.962       4.966       4.968       4.969    
  15    4.981       4.981       4.980       4.979       4.978       4.978       4.980       4.982       4.985       4.988    
        4.990       4.991       4.993       4.993       4.994    
  16    4.893       4.887       4.875       4.859       4.843       4.837       4.849       4.872       4.895       4.916    
        4.932       4.944       4.953       4.959       4.961    
  17    4.811       4.799       4.774       4.739       4.699       4.676       4.710       4.761       4.809       4.848    
        4.879       4.901       4.917       4.927       4.932    
  18    4.742       4.723       4.684       4.623       4.539       4.456       4.553       4.652       4.730       4.789    
        4.833       4.865       4.887       4.901       4.908    
  19    4.691       4.668       4.617       4.529       4.378       4.055       4.394       4.564       4.671       4.746    
        4.801       4.839       4.866       4.882       4.890    
  20    4.665       4.639       4.585       4.501       4.387       4.282       4.405       4.538       4.644       4.725    
        4.784       4.826       4.854       4.872       4.881    

 HEAD WILL BE SAVED ON UNIT   51 AT END OF TIME STEP   94, STRESS PERIOD    2

 DRAWDOWN WILL BE SAVED ON UNIT   52 AT END OF TIME STEP   94, STRESS PERIOD    2
1
  VOLUMETRIC BUDGET FOR ENTIRE MODEL AT END OF TIME STEP   94, STRESS PERIOD   2
  ------------------------------------------------------------------------------

     CUMULATIVE VOLUMES      L**3       RATES FOR THIS TIME STEP      L**3/T
     ------------------                 ------------------------

           IN:                                      IN:
           ---                                      ---
             STORAGE =         683.3799               STORAGE =           0.0000
       CONSTANT HEAD =       63358.9570         CONSTANT HEAD =         491.7645
               WELLS =       19400.0000                 WELLS =         200.0000
       RIVER LEAKAGE =      208325.4062         RIVER LEAKAGE =         566.5667

            TOTAL IN =      291767.7500              TOTAL IN =        1258.3312

          OUT:                                     OUT:
          ----                                     ----
             STORAGE =      238794.6719               STORAGE =         708.3310
       CONSTANT HEAD =           0.0000         CONSTANT HEAD =           0.0000
               WELLS =       52300.0000                 WELLS =         550.0000
       RIVER LEAKAGE =         673.0626         RIVER LEAKAGE =           0.0000

           TOTAL OUT =      291767.7500             TOTAL OUT =        1258.3311

            IN - OUT =           0.0000              IN - OUT =       1.2207E-04

 PERCENT DISCREPANCY =           0.00     PERCENT DISCREPANCY =           0.00






         TIME SUMMARY AT END OF TIME STEP   94 IN STRESS PERIOD    2
                    SECONDS     MINUTES      HOURS       DAYS        YEARS
                    -----------------------------------------------------------
   TIME STEP LENGTH  86400.      1440.0      24.000      1.0000     2.73785E-03
 STRESS PERIOD TIME 8.12160E+06 1.35360E+05  2256.0      94.000     0.25736    
         TOTAL TIME 8.20800E+06 1.36800E+05  2280.0      95.000     0.26010    
1
 
 SOLVING FOR HEAD 

 OUTPUT CONTROL FOR STRESS PERIOD    2   TIME STEP   95
    SAVE HEAD FOR ALL LAYERS
    SAVE DRAWDOWN FOR ALL LAYERS
    SAVE BUDGET
    PRINT HEAD FOR ALL LAYERS
    PRINT BUDGET
 UBDSV1 SAVING "         STORAGE" ON UNIT   1 AT TIME STEP 95, STRESS PERIOD   2
 UBDSV2 SAVING "   CONSTANT HEAD" ON UNIT   1 AT TIME STEP 95, STRESS PERIOD   2
 UBDSV1 SAVING "FLOW RIGHT FACE " ON UNIT   1 AT TIME STEP 95, STRESS PERIOD   2
 UBDSV1 SAVING "FLOW FRONT FACE " ON UNIT   1 AT TIME STEP 95, STRESS PERIOD   2
1
              HEAD IN LAYER   1 AT END OF TIME STEP  95 IN STRESS PERIOD    2
  ---------------------------------------------------------------------------

            1           2           3           4           5           6           7           8           9          10
           11          12          13          14          15
 ........................................................................................................................
   1    5.850       5.850       5.850       5.850       5.850       5.850       5.850       5.850       5.850       5.850    
        5.850       5.850       5.850       5.850       5.850    
   2    4.945       4.915       4.866       4.846       4.973       5.171       5.345       5.521       5.634       5.681    
        5.718       5.744       5.758       5.764       5.766    
   3    4.202       4.131       3.986       3.825       4.166       4.521       4.848       5.205       5.430       5.524    
        5.599       5.652       5.676       5.684       5.686    
   4    3.664       3.555       3.252       2.422       3.488       4.052       4.483       4.915       5.250       5.388    
        5.506       5.592       5.614       5.614       5.610    
   5    3.375       3.310       3.181       3.050       3.446       3.867       4.279       4.730       5.101       5.276    
        5.446       5.600       5.578       5.549       5.534    
   6    3.290       3.270       3.249       3.290       3.520       3.833       4.193       4.614       4.966       5.171    
        5.406       5.789       5.552       5.473       5.446    
   7    3.356       3.362       3.389       3.470       3.643       3.887       4.188       4.554       4.862       5.040    
        5.223       5.387       5.372       5.347       5.335    
   8    3.536       3.552       3.593       3.675       3.813       4.003       4.244       4.541       4.790       4.922    
        5.063       5.167       5.205       5.214       5.215    
   9    3.802       3.819       3.858       3.926       4.031       4.172       4.351       4.573       4.759       4.852    
        4.942       5.019       5.070       5.091       5.099    
  10    4.132       4.146       4.175       4.223       4.293       4.385       4.502       4.645       4.766       4.827    
        4.884       4.933       4.967       4.986       4.994    
  11    4.506       4.513       4.529       4.555       4.590       4.635       4.690       4.753       4.802       4.836    
        4.871       4.902       4.925       4.939       4.945    
  12    4.744       4.748       4.756       4.767       4.783       4.801       4.821       4.838       4.847       4.867    
        4.888       4.907       4.921       4.930       4.935    
  13    4.823       4.826       4.831       4.838       4.847       4.859       4.871       4.883       4.897       4.910    
        4.923       4.933       4.942       4.947       4.950    
  14    4.902       4.903       4.905       4.908       4.913       4.918       4.925       4.933       4.945       4.953    
        4.959       4.965       4.969       4.971       4.973    
  15    4.982       4.981       4.980       4.979       4.978       4.978       4.980       4.983       4.986       4.988    
        4.990       4.992       4.993       4.994       4.994    
  16    4.893       4.887       4.875       4.859       4.843       4.837       4.850       4.872       4.896       4.916    
        4.932       4.945       4.953       4.959       4.962    
  17    4.812       4.799       4.774       4.739       4.699       4.676       4.710       4.761       4.809       4.848    
        4.879       4.902       4.917       4.927       4.932    
  18    4.742       4.723       4.684       4.623       4.539       4.456       4.553       4.652       4.731       4.790    
        4.834       4.866       4.887       4.901       4.908    
  19    4.692       4.668       4.617       4.530       4.378       4.055       4.395       4.564       4.672       4.747    
        4.801       4.840       4.866       4.883       4.891    
  20    4.666       4.640       4.586       4.501       4.387       4.283       4.405       4.538       4.645       4.725    
        4.784       4.826       4.855       4.873       4.882    

 HEAD WILL BE SAVED ON UNIT   51 AT END OF TIME STEP   95, STRESS PERIOD    2

 DRAWDOWN WILL BE SAVED ON UNIT   52 AT END OF TIME STEP   95, STRESS PERIOD    2
1
  VOLUMETRIC BUDGET FOR ENTIRE MODEL AT END OF TIME STEP   95, STRESS PERIOD   2
  ------------------------------------------------------------------------------

     CUMULATIVE VOLUMES      L**3       RATES FOR THIS TIME STEP      L**3/T
     ------------------                 ------------------------

           IN:                                      IN:
           ---                                      ---
             STORAGE =         683.3799               STORAGE =           0.0000
       CONSTANT HEAD =       63847.1641         CONSTANT HEAD =         488.2088
               WELLS =       19600.0000                 WELLS =         200.0000
       RIVER LEAKAGE =      208883.8594         RIVER LEAKAGE =         558.4592

            TOTAL IN =      293014.4062              TOTAL IN =        1246.6680

          OUT:                                     OUT:
          ----                                     ----
             STORAGE =      239491.3438               STORAGE =         696.6681
       CONSTANT HEAD =           0.0000         CONSTANT HEAD =           0.0000
               WELLS =       52850.0000                 WELLS =         550.0000
       RIVER LEAKAGE =         673.0626         RIVER LEAKAGE =           0.0000

           TOTAL OUT =      293014.4062             TOTAL OUT =        1246.6681

            IN - OUT =           0.0000              IN - OUT =      -1.2207E-04

 PERCENT DISCREPANCY =           0.00     PERCENT DISCREPANCY =          -0.00






         TIME SUMMARY AT END OF TIME STEP   95 IN STRESS PERIOD    2
                    SECONDS     MINUTES      HOURS       DAYS        YEARS
                    -----------------------------------------------------------
   TIME STEP LENGTH  86400.      1440.0      24.000      1.0000     2.73785E-03
 STRESS PERIOD TIME 8.20800E+06 1.36800E+05  2280.0      95.000     0.26010    
         TOTAL TIME 8.29440E+06 1.38240E+05  2304.0      96.000     0.26283    
1
 
 SOLVING FOR HEAD 

 OUTPUT CONTROL FOR STRESS PERIOD    2   TIME STEP   96
    SAVE HEAD FOR ALL LAYERS
    SAVE DRAWDOWN FOR ALL LAYERS
    SAVE BUDGET
    PRINT HEAD FOR ALL LAYERS
    PRINT BUDGET
 UBDSV1 SAVING "         STORAGE" ON UNIT   1 AT TIME STEP 96, STRESS PERIOD   2
 UBDSV2 SAVING "   CONSTANT HEAD" ON UNIT   1 AT TIME STEP 96, STRESS PERIOD   2
 UBDSV1 SAVING "FLOW RIGHT FACE " ON UNIT   1 AT TIME STEP 96, STRESS PERIOD   2
 UBDSV1 SAVING "FLOW FRONT FACE " ON UNIT   1 AT TIME STEP 96, STRESS PERIOD   2
1
              HEAD IN LAYER   1 AT END OF TIME STEP  96 IN STRESS PERIOD    2
  ---------------------------------------------------------------------------

            1           2           3           4           5           6           7           8           9          10
           11          12          13          14          15
 ........................................................................................................................
   1    5.880       5.880       5.880       5.880       5.880       5.880       5.880       5.880       5.880       5.880    
        5.880       5.880       5.880       5.880       5.880    
   2    4.975       4.945       4.897       4.877       5.010       5.205       5.378       5.553       5.666       5.713    
        5.750       5.776       5.790       5.796       5.797    
   3    4.233       4.162       4.017       3.857       4.200       4.556       4.883       5.240       5.465       5.558    
        5.633       5.686       5.710       5.718       5.719    
   4    3.695       3.585       3.283       2.454       3.521       4.086       4.519       4.952       5.286       5.424    
        5.542       5.628       5.650       5.649       5.645    
   5    3.405       3.340       3.210       3.081       3.477       3.899       4.314       4.768       5.140       5.314    
        5.484       5.638       5.615       5.586       5.571    
   6    3.318       3.298       3.277       3.318       3.549       3.863       4.225       4.650       5.007       5.211    
        5.446       5.827       5.591       5.511       5.485    
   7    3.382       3.387       3.414       3.495       3.668       3.913       4.216       4.586       4.900       5.082    
        5.263       5.427       5.412       5.387       5.375    
   8    3.558       3.574       3.615       3.697       3.835       4.026       4.268       4.569       4.823       4.958    
        5.100       5.208       5.245       5.255       5.257    
   9    3.820       3.837       3.876       3.944       4.048       4.190       4.370       4.595       4.785       4.881    
        4.976       5.063       5.109       5.133       5.144    
  10    4.145       4.158       4.187       4.235       4.306       4.399       4.516       4.662       4.786       4.849    
        4.909       4.962       5.000       5.029       5.044    
  11    4.513       4.521       4.537       4.562       4.597       4.643       4.698       4.763       4.815       4.852    
        4.889       4.922       4.947       4.964       4.973    
  12    4.748       4.752       4.760       4.771       4.787       4.806       4.826       4.844       4.856       4.877    
        4.899       4.919       4.935       4.945       4.951    
  13    4.826       4.828       4.833       4.841       4.850       4.862       4.875       4.887       4.902       4.916    
        4.929       4.940       4.949       4.955       4.958    
  14    4.904       4.905       4.907       4.910       4.914       4.920       4.927       4.936       4.947       4.955    
        4.962       4.968       4.972       4.975       4.976    
  15    4.982       4.981       4.980       4.979       4.978       4.978       4.980       4.983       4.986       4.988    
        4.990       4.992       4.993       4.994       4.994    
  16    4.894       4.887       4.875       4.859       4.844       4.837       4.850       4.872       4.896       4.916    
        4.933       4.945       4.954       4.959       4.962    
  17    4.812       4.799       4.775       4.739       4.700       4.676       4.710       4.761       4.809       4.849    
        4.879       4.902       4.918       4.928       4.933    
  18    4.742       4.724       4.685       4.623       4.540       4.457       4.554       4.653       4.731       4.790    
        4.834       4.866       4.888       4.902       4.908    
  19    4.692       4.668       4.617       4.530       4.378       4.056       4.395       4.565       4.672       4.747    
        4.801       4.840       4.866       4.883       4.891    
  20    4.666       4.640       4.586       4.501       4.388       4.283       4.406       4.538       4.645       4.725    
        4.784       4.826       4.855       4.873       4.882    

 HEAD WILL BE SAVED ON UNIT   51 AT END OF TIME STEP   96, STRESS PERIOD    2

 DRAWDOWN WILL BE SAVED ON UNIT   52 AT END OF TIME STEP   96, STRESS PERIOD    2
1
  VOLUMETRIC BUDGET FOR ENTIRE MODEL AT END OF TIME STEP   96, STRESS PERIOD   2
  ------------------------------------------------------------------------------

     CUMULATIVE VOLUMES      L**3       RATES FOR THIS TIME STEP      L**3/T
     ------------------                 ------------------------

           IN:                                      IN:
           ---                                      ---
             STORAGE =         683.3799               STORAGE =           0.0000
       CONSTANT HEAD =       64331.9453         CONSTANT HEAD =         484.7796
               WELLS =       19800.0000                 WELLS =         200.0000
       RIVER LEAKAGE =      209433.9062         RIVER LEAKAGE =         550.0443

            TOTAL IN =      294249.2500              TOTAL IN =        1234.8237

          OUT:                                     OUT:
          ----                                     ----
             STORAGE =      240176.1719               STORAGE =         684.8228
       CONSTANT HEAD =           0.0000         CONSTANT HEAD =           0.0000
               WELLS =       53400.0000                 WELLS =         550.0000
       RIVER LEAKAGE =         673.0626         RIVER LEAKAGE =           0.0000

           TOTAL OUT =      294249.2500             TOTAL OUT =        1234.8228

            IN - OUT =           0.0000              IN - OUT =       9.7656E-04

 PERCENT DISCREPANCY =           0.00     PERCENT DISCREPANCY =           0.00






         TIME SUMMARY AT END OF TIME STEP   96 IN STRESS PERIOD    2
                    SECONDS     MINUTES      HOURS       DAYS        YEARS
                    -----------------------------------------------------------
   TIME STEP LENGTH  86400.      1440.0      24.000      1.0000     2.73785E-03
 STRESS PERIOD TIME 8.29440E+06 1.38240E+05  2304.0      96.000     0.26283    
         TOTAL TIME 8.38080E+06 1.39680E+05  2328.0      97.000     0.26557    
1
 
 SOLVING FOR HEAD 

 OUTPUT CONTROL FOR STRESS PERIOD    2   TIME STEP   97
    SAVE HEAD FOR ALL LAYERS
    SAVE DRAWDOWN FOR ALL LAYERS
    SAVE BUDGET
    PRINT HEAD FOR ALL LAYERS
    PRINT BUDGET
 UBDSV1 SAVING "         STORAGE" ON UNIT   1 AT TIME STEP 97, STRESS PERIOD   2
 UBDSV2 SAVING "   CONSTANT HEAD" ON UNIT   1 AT TIME STEP 97, STRESS PERIOD   2
 UBDSV1 SAVING "FLOW RIGHT FACE " ON UNIT   1 AT TIME STEP 97, STRESS PERIOD   2
 UBDSV1 SAVING "FLOW FRONT FACE " ON UNIT   1 AT TIME STEP 97, STRESS PERIOD   2
1
              HEAD IN LAYER   1 AT END OF TIME STEP  97 IN STRESS PERIOD    2
  ---------------------------------------------------------------------------

            1           2           3           4           5           6           7           8           9          10
           11          12          13          14          15
 ........................................................................................................................
   1    5.910       5.910       5.910       5.910       5.910       5.910       5.910       5.910       5.910       5.910    
        5.910       5.910       5.910       5.910       5.910    
   2    5.013       4.977       4.928       4.913       5.074       5.245       5.413       5.586       5.699       5.745    
        5.782       5.808       5.822       5.827       5.829    
   3    4.264       4.193       4.048       3.890       4.237       4.591       4.919       5.275       5.501       5.593    
        5.668       5.720       5.744       5.751       5.753    
   4    3.725       3.616       3.314       2.486       3.554       4.120       4.555       4.990       5.325       5.462    
        5.579       5.664       5.686       5.684       5.681    
   5    3.435       3.370       3.240       3.111       3.508       3.931       4.348       4.807       5.184       5.355    
        5.523       5.676       5.652       5.623       5.608    
   6    3.346       3.326       3.305       3.346       3.577       3.892       4.257       4.689       5.063       5.256    
        5.486       5.866       5.629       5.549       5.523    
   7    3.407       3.413       3.439       3.520       3.694       3.939       4.245       4.620       4.940       5.122    
        5.302       5.465       5.451       5.427       5.414    
   8    3.580       3.596       3.637       3.719       3.857       4.048       4.292       4.597       4.855       4.993    
        5.137       5.246       5.285       5.295       5.297    
   9    3.837       3.854       3.893       3.962       4.066       4.208       4.390       4.618       4.812       4.911    
        5.012       5.100       5.151       5.175       5.185    
  10    4.157       4.171       4.200       4.248       4.318       4.412       4.531       4.679       4.806       4.872    
        4.936       4.995       5.047       5.074       5.086    
  11    4.520       4.528       4.544       4.569       4.605       4.651       4.707       4.774       4.830       4.868    
        4.908       4.944       4.973       4.992       5.001    
  12    4.752       4.756       4.763       4.775       4.791       4.810       4.831       4.851       4.864       4.887    
        4.911       4.933       4.951       4.962       4.968    
  13    4.829       4.831       4.836       4.843       4.853       4.865       4.878       4.891       4.907       4.922    
        4.936       4.948       4.957       4.964       4.967    
  14    4.905       4.906       4.908       4.911       4.916       4.922       4.929       4.938       4.949       4.958    
        4.965       4.971       4.975       4.978       4.980    
  15    4.982       4.981       4.980       4.979       4.978       4.978       4.980       4.983       4.986       4.989    
        4.991       4.992       4.994       4.994       4.995    
  16    4.894       4.888       4.876       4.860       4.844       4.837       4.850       4.873       4.896       4.917    
        4.933       4.945       4.954       4.960       4.962    
  17    4.812       4.800       4.775       4.740       4.700       4.676       4.711       4.761       4.809       4.849    
        4.880       4.902       4.918       4.928       4.933    
  18    4.743       4.724       4.685       4.624       4.540       4.457       4.554       4.653       4.731       4.791    
        4.834       4.866       4.888       4.902       4.909    
  19    4.692       4.668       4.618       4.530       4.379       4.056       4.395       4.565       4.672       4.748    
        4.802       4.840       4.867       4.883       4.891    
  20    4.666       4.640       4.586       4.502       4.388       4.283       4.406       4.539       4.646       4.726    
        4.785       4.827       4.856       4.874       4.882    

 HEAD WILL BE SAVED ON UNIT   51 AT END OF TIME STEP   97, STRESS PERIOD    2

 DRAWDOWN WILL BE SAVED ON UNIT   52 AT END OF TIME STEP   97, STRESS PERIOD    2
1
  VOLUMETRIC BUDGET FOR ENTIRE MODEL AT END OF TIME STEP   97, STRESS PERIOD   2
  ------------------------------------------------------------------------------

     CUMULATIVE VOLUMES      L**3       RATES FOR THIS TIME STEP      L**3/T
     ------------------                 ------------------------

           IN:                                      IN:
           ---                                      ---
             STORAGE =         683.3799               STORAGE =           0.0000
       CONSTANT HEAD =       64810.5078         CONSTANT HEAD =         478.5612
               WELLS =       20000.0000                 WELLS =         200.0000
       RIVER LEAKAGE =      209975.1406         RIVER LEAKAGE =         541.2280

            TOTAL IN =      295469.0312              TOTAL IN =        1219.7893

          OUT:                                     OUT:
          ----                                     ----
             STORAGE =      240845.9688               STORAGE =         669.7911
       CONSTANT HEAD =           0.0000         CONSTANT HEAD =           0.0000
               WELLS =       53950.0000                 WELLS =         550.0000
       RIVER LEAKAGE =         673.0626         RIVER LEAKAGE =           0.0000

           TOTAL OUT =      295469.0312             TOTAL OUT =        1219.7910

            IN - OUT =           0.0000              IN - OUT =      -1.7090E-03

 PERCENT DISCREPANCY =           0.00     PERCENT DISCREPANCY =          -0.00






         TIME SUMMARY AT END OF TIME STEP   97 IN STRESS PERIOD    2
                    SECONDS     MINUTES      HOURS       DAYS        YEARS
                    -----------------------------------------------------------
   TIME STEP LENGTH  86400.      1440.0      24.000      1.0000     2.73785E-03
 STRESS PERIOD TIME 8.38080E+06 1.39680E+05  2328.0      97.000     0.26557    
         TOTAL TIME 8.46720E+06 1.41120E+05  2352.0      98.000     0.26831    
1
 
 SOLVING FOR HEAD 

 OUTPUT CONTROL FOR STRESS PERIOD    2   TIME STEP   98
    SAVE HEAD FOR ALL LAYERS
    SAVE DRAWDOWN FOR ALL LAYERS
    SAVE BUDGET
    PRINT HEAD FOR ALL LAYERS
    PRINT BUDGET
 UBDSV1 SAVING "         STORAGE" ON UNIT   1 AT TIME STEP 98, STRESS PERIOD   2
 UBDSV2 SAVING "   CONSTANT HEAD" ON UNIT   1 AT TIME STEP 98, STRESS PERIOD   2
 UBDSV1 SAVING "FLOW RIGHT FACE " ON UNIT   1 AT TIME STEP 98, STRESS PERIOD   2
 UBDSV1 SAVING "FLOW FRONT FACE " ON UNIT   1 AT TIME STEP 98, STRESS PERIOD   2
1
              HEAD IN LAYER   1 AT END OF TIME STEP  98 IN STRESS PERIOD    2
  ---------------------------------------------------------------------------

            1           2           3           4           5           6           7           8           9          10
           11          12          13          14          15
 ........................................................................................................................
   1    5.940       5.940       5.940       5.940       5.940       5.940       5.940       5.940       5.940       5.940    
        5.940       5.940       5.940       5.940       5.940    
   2    5.085       5.027       4.962       4.947       5.109       5.279       5.447       5.621       5.733       5.779    
        5.815       5.840       5.854       5.860       5.861    
   3    4.302       4.227       4.080       3.924       4.273       4.627       4.956       5.319       5.540       5.630    
        5.704       5.755       5.778       5.786       5.787    
   4    3.757       3.647       3.346       2.519       3.587       4.155       4.594       5.057       5.370       5.502    
        5.617       5.701       5.722       5.720       5.717    
   5    3.464       3.399       3.270       3.141       3.539       3.963       4.384       4.849       5.226       5.396    
        5.563       5.715       5.691       5.661       5.645    
   6    3.373       3.353       3.333       3.374       3.606       3.922       4.290       4.728       5.104       5.298    
        5.527       5.907       5.669       5.589       5.562    
   7    3.432       3.438       3.464       3.545       3.719       3.966       4.274       4.654       4.980       5.166    
        5.345       5.508       5.492       5.468       5.455    
   8    3.601       3.617       3.658       3.740       3.878       4.071       4.317       4.626       4.892       5.044    
        5.184       5.290       5.328       5.337       5.339    
   9    3.855       3.872       3.911       3.979       4.084       4.227       4.410       4.642       4.841       4.947    
        5.061       5.146       5.194       5.219       5.229    
  10    4.170       4.183       4.212       4.261       4.331       4.425       4.545       4.697       4.828       4.898    
        4.970       5.041       5.089       5.118       5.132    
  11    4.527       4.535       4.551       4.577       4.613       4.659       4.716       4.785       4.845       4.886    
        4.930       4.971       5.007       5.037       5.052    
  12    4.756       4.760       4.767       4.779       4.795       4.815       4.836       4.857       4.874       4.899    
        4.925       4.949       4.970       4.985       4.993    
  13    4.831       4.834       4.839       4.846       4.856       4.868       4.882       4.896       4.912       4.928    
        4.943       4.956       4.967       4.975       4.979    
  14    4.907       4.908       4.910       4.913       4.917       4.923       4.931       4.940       4.952       4.961    
        4.968       4.975       4.979       4.983       4.985    
  15    4.982       4.982       4.981       4.980       4.979       4.979       4.980       4.983       4.986       4.989    
        4.991       4.993       4.994       4.995       4.995    
  16    4.894       4.888       4.876       4.860       4.844       4.837       4.850       4.873       4.896       4.917    
        4.933       4.946       4.954       4.960       4.963    
  17    4.812       4.800       4.775       4.740       4.700       4.677       4.711       4.762       4.810       4.849    
        4.880       4.903       4.918       4.928       4.933    
  18    4.743       4.724       4.685       4.624       4.540       4.457       4.554       4.653       4.732       4.791    
        4.835       4.867       4.889       4.902       4.909    
  19    4.693       4.669       4.618       4.531       4.379       4.056       4.396       4.565       4.673       4.748    
        4.802       4.841       4.867       4.884       4.892    
  20    4.666       4.641       4.587       4.502       4.388       4.284       4.406       4.539       4.646       4.726    
        4.785       4.827       4.856       4.874       4.883    

 HEAD WILL BE SAVED ON UNIT   51 AT END OF TIME STEP   98, STRESS PERIOD    2

 DRAWDOWN WILL BE SAVED ON UNIT   52 AT END OF TIME STEP   98, STRESS PERIOD    2
1
  VOLUMETRIC BUDGET FOR ENTIRE MODEL AT END OF TIME STEP   98, STRESS PERIOD   2
  ------------------------------------------------------------------------------

     CUMULATIVE VOLUMES      L**3       RATES FOR THIS TIME STEP      L**3/T
     ------------------                 ------------------------

           IN:                                      IN:
           ---                                      ---
             STORAGE =         683.3799               STORAGE =           0.0000
       CONSTANT HEAD =       65280.9531         CONSTANT HEAD =         470.4442
               WELLS =       20200.0000                 WELLS =         200.0000
       RIVER LEAKAGE =      210506.8438         RIVER LEAKAGE =         531.6971

            TOTAL IN =      296671.1875              TOTAL IN =        1202.1414

          OUT:                                     OUT:
          ----                                     ----
             STORAGE =      241498.1094               STORAGE =         652.1425
       CONSTANT HEAD =           0.0000         CONSTANT HEAD =           0.0000
               WELLS =       54500.0000                 WELLS =         550.0000
       RIVER LEAKAGE =         673.0626         RIVER LEAKAGE =           0.0000

           TOTAL OUT =      296671.1875             TOTAL OUT =        1202.1425

            IN - OUT =           0.0000              IN - OUT =      -1.0986E-03

 PERCENT DISCREPANCY =           0.00     PERCENT DISCREPANCY =          -0.00






         TIME SUMMARY AT END OF TIME STEP   98 IN STRESS PERIOD    2
                    SECONDS     MINUTES      HOURS       DAYS        YEARS
                    -----------------------------------------------------------
   TIME STEP LENGTH  86400.      1440.0      24.000      1.0000     2.73785E-03
 STRESS PERIOD TIME 8.46720E+06 1.41120E+05  2352.0      98.000     0.26831    
         TOTAL TIME 8.55360E+06 1.42560E+05  2376.0      99.000     0.27105    
1
 
 SOLVING FOR HEAD 

 OUTPUT CONTROL FOR STRESS PERIOD    2   TIME STEP   99
    SAVE HEAD FOR ALL LAYERS
    SAVE DRAWDOWN FOR ALL LAYERS
    SAVE BUDGET
    PRINT HEAD FOR ALL LAYERS
    PRINT BUDGET
 UBDSV1 SAVING "         STORAGE" ON UNIT   1 AT TIME STEP 99, STRESS PERIOD   2
 UBDSV2 SAVING "   CONSTANT HEAD" ON UNIT   1 AT TIME STEP 99, STRESS PERIOD   2
 UBDSV1 SAVING "FLOW RIGHT FACE " ON UNIT   1 AT TIME STEP 99, STRESS PERIOD   2
 UBDSV1 SAVING "FLOW FRONT FACE " ON UNIT   1 AT TIME STEP 99, STRESS PERIOD   2
1
              HEAD IN LAYER   1 AT END OF TIME STEP  99 IN STRESS PERIOD    2
  ---------------------------------------------------------------------------

            1           2           3           4           5           6           7           8           9          10
           11          12          13          14          15
 ........................................................................................................................
   1    5.970       5.970       5.970       5.970       5.970       5.970       5.970       5.970       5.970       5.970    
        5.970       5.970       5.970       5.970       5.970    
   2    5.130       5.088       4.999       4.981       5.142       5.312       5.480       5.656       5.767       5.812    
        5.848       5.873       5.886       5.891       5.893    
   3    4.339       4.264       4.114       3.957       4.308       4.662       4.992       5.358       5.577       5.667    
        5.739       5.790       5.813       5.819       5.821    
   4    3.789       3.679       3.377       2.551       3.620       4.190       4.634       5.108       5.410       5.541    
        5.654       5.738       5.758       5.756       5.752    
   5    3.494       3.429       3.300       3.172       3.570       3.996       4.420       4.891       5.268       5.437    
        5.602       5.753       5.728       5.698       5.682    
   6    3.401       3.381       3.361       3.402       3.634       3.952       4.323       4.767       5.147       5.339    
        5.567       5.946       5.707       5.627       5.600    
   7    3.457       3.462       3.489       3.570       3.745       3.993       4.304       4.690       5.028       5.209    
        5.386       5.548       5.531       5.507       5.494    
   8    3.623       3.639       3.680       3.762       3.900       4.094       4.342       4.657       4.930       5.085    
        5.224       5.330       5.367       5.377       5.379    
   9    3.872       3.889       3.928       3.996       4.101       4.245       4.430       4.666       4.872       4.982    
        5.097       5.184       5.234       5.259       5.269    
  10    4.182       4.196       4.225       4.273       4.344       4.439       4.560       4.715       4.851       4.925    
        5.002       5.079       5.130       5.160       5.173    
  11    4.534       4.542       4.558       4.584       4.620       4.667       4.726       4.797       4.861       4.905    
        4.953       5.002       5.051       5.079       5.093    
  12    4.759       4.763       4.771       4.783       4.799       4.819       4.842       4.864       4.884       4.911    
        4.940       4.969       4.995       5.018       5.031    
  13    4.834       4.836       4.841       4.849       4.859       4.872       4.886       4.900       4.917       4.935    
        4.952       4.967       4.979       4.990       4.995    
  14    4.908       4.909       4.911       4.914       4.919       4.925       4.933       4.942       4.954       4.964    
        4.972       4.979       4.985       4.989       4.991    
  15    4.982       4.982       4.981       4.980       4.979       4.979       4.981       4.983       4.987       4.989    
        4.991       4.993       4.994       4.995       4.996    
  16    4.894       4.888       4.876       4.860       4.844       4.838       4.851       4.873       4.897       4.917    
        4.934       4.946       4.955       4.960       4.963    
  17    4.812       4.800       4.775       4.740       4.700       4.677       4.711       4.762       4.810       4.850    
        4.880       4.903       4.919       4.929       4.934    
  18    4.743       4.724       4.686       4.624       4.541       4.458       4.555       4.654       4.732       4.791    
        4.835       4.867       4.889       4.903       4.909    
  19    4.693       4.669       4.618       4.531       4.379       4.056       4.396       4.566       4.673       4.748    
        4.802       4.841       4.868       4.884       4.892    
  20    4.667       4.641       4.587       4.502       4.388       4.284       4.406       4.539       4.646       4.727    
        4.785       4.827       4.856       4.874       4.883    

 HEAD WILL BE SAVED ON UNIT   51 AT END OF TIME STEP   99, STRESS PERIOD    2

 DRAWDOWN WILL BE SAVED ON UNIT   52 AT END OF TIME STEP   99, STRESS PERIOD    2
1
  VOLUMETRIC BUDGET FOR ENTIRE MODEL AT END OF TIME STEP   99, STRESS PERIOD   2
  ------------------------------------------------------------------------------

     CUMULATIVE VOLUMES      L**3       RATES FOR THIS TIME STEP      L**3/T
     ------------------                 ------------------------

           IN:                                      IN:
           ---                                      ---
             STORAGE =         683.3799               STORAGE =           0.0000
       CONSTANT HEAD =       65744.6484         CONSTANT HEAD =         463.6959
               WELLS =       20400.0000                 WELLS =         200.0000
       RIVER LEAKAGE =      211027.7656         RIVER LEAKAGE =         520.9278

            TOTAL IN =      297855.8125              TOTAL IN =        1184.6238

          OUT:                                     OUT:
          ----                                     ----
             STORAGE =      242132.7344               STORAGE =         634.6256
       CONSTANT HEAD =           0.0000         CONSTANT HEAD =           0.0000
               WELLS =       55050.0000                 WELLS =         550.0000
       RIVER LEAKAGE =         673.0626         RIVER LEAKAGE =           0.0000

           TOTAL OUT =      297855.8125             TOTAL OUT =        1184.6256

            IN - OUT =           0.0000              IN - OUT =      -1.8311E-03

 PERCENT DISCREPANCY =           0.00     PERCENT DISCREPANCY =          -0.00






         TIME SUMMARY AT END OF TIME STEP   99 IN STRESS PERIOD    2
                    SECONDS     MINUTES      HOURS       DAYS        YEARS
                    -----------------------------------------------------------
   TIME STEP LENGTH  86400.      1440.0      24.000      1.0000     2.73785E-03
 STRESS PERIOD TIME 8.55360E+06 1.42560E+05  2376.0      99.000     0.27105    
         TOTAL TIME 8.64000E+06 1.44000E+05  2400.0      100.00     0.27379    
1
 
 SOLVING FOR HEAD 

 OUTPUT CONTROL FOR STRESS PERIOD    2   TIME STEP  100
    SAVE HEAD FOR ALL LAYERS
    SAVE DRAWDOWN FOR ALL LAYERS
    SAVE BUDGET
    PRINT HEAD FOR ALL LAYERS
    PRINT BUDGET
 UBDSV1 SAVING "         STORAGE" ON UNIT   1 AT TIME STEP100, STRESS PERIOD   2
 UBDSV2 SAVING "   CONSTANT HEAD" ON UNIT   1 AT TIME STEP100, STRESS PERIOD   2
 UBDSV1 SAVING "FLOW RIGHT FACE " ON UNIT   1 AT TIME STEP100, STRESS PERIOD   2
 UBDSV1 SAVING "FLOW FRONT FACE " ON UNIT   1 AT TIME STEP100, STRESS PERIOD   2
1
              HEAD IN LAYER   1 AT END OF TIME STEP 100 IN STRESS PERIOD    2
  ---------------------------------------------------------------------------

            1           2           3           4           5           6           7           8           9          10
           11          12          13          14          15
 ........................................................................................................................
   1    6.000       6.000       6.000       6.000       6.000       6.000       6.000       6.000       6.000       6.000    
        6.000       6.000       6.000       6.000       6.000    
   2    5.169       5.136       5.078       5.042       5.183       5.350       5.524       5.694       5.801       5.845    
        5.880       5.905       5.918       5.923       5.925    
   3    4.376       4.303       4.154       3.995       4.345       4.702       5.065       5.405       5.615       5.703    
        5.774       5.824       5.847       5.853       5.854    
   4    3.821       3.711       3.410       2.585       3.654       4.226       4.677       5.151       5.450       5.580    
        5.692       5.774       5.794       5.792       5.787    
   5    3.523       3.459       3.330       3.202       3.601       4.029       4.457       4.932       5.309       5.477    
        5.641       5.791       5.766       5.735       5.719    
   6    3.428       3.408       3.388       3.430       3.663       3.983       4.357       4.806       5.191       5.382    
        5.608       5.986       5.747       5.666       5.639    
   7    3.481       3.487       3.514       3.596       3.771       4.020       4.334       4.728       5.079       5.253    
        5.429       5.589       5.572       5.547       5.534    
   8    3.644       3.660       3.701       3.783       3.922       4.117       4.368       4.689       4.971       5.128    
        5.267       5.372       5.409       5.418       5.420    
   9    3.889       3.906       3.945       4.014       4.119       4.264       4.451       4.692       4.906       5.026    
        5.142       5.228       5.277       5.301       5.311    
  10    4.195       4.208       4.237       4.286       4.357       4.453       4.576       4.734       4.877       4.958    
        5.051       5.124       5.173       5.202       5.215    
  11    4.541       4.549       4.565       4.591       4.628       4.675       4.735       4.810       4.879       4.928    
        4.985       5.049       5.093       5.121       5.135    
  12    4.763       4.767       4.775       4.787       4.804       4.824       4.848       4.871       4.895       4.926    
        4.960       4.995       5.034       5.060       5.072    
  13    4.836       4.839       4.844       4.852       4.862       4.875       4.890       4.905       4.924       4.943    
        4.962       4.980       4.998       5.015       5.024    
  14    4.909       4.910       4.912       4.916       4.921       4.927       4.935       4.945       4.957       4.967    
        4.976       4.984       4.992       4.998       5.002    
  15    4.982       4.982       4.981       4.980       4.979       4.979       4.981       4.984       4.987       4.990    
        4.992       4.994       4.995       4.996       4.997    
  16    4.894       4.888       4.876       4.860       4.844       4.838       4.851       4.873       4.897       4.918    
        4.934       4.947       4.955       4.961       4.964    
  17    4.813       4.800       4.776       4.740       4.701       4.677       4.711       4.762       4.810       4.850    
        4.881       4.903       4.919       4.929       4.934    
  18    4.743       4.725       4.686       4.625       4.541       4.458       4.555       4.654       4.732       4.791    
        4.835       4.867       4.889       4.903       4.910    
  19    4.693       4.669       4.618       4.531       4.380       4.057       4.396       4.566       4.673       4.749    
        4.803       4.841       4.868       4.884       4.892    
  20    4.667       4.641       4.587       4.502       4.389       4.284       4.407       4.540       4.647       4.727    
        4.786       4.828       4.857       4.875       4.883    

 HEAD WILL BE SAVED ON UNIT   51 AT END OF TIME STEP  100, STRESS PERIOD    2

 DRAWDOWN WILL BE SAVED ON UNIT   52 AT END OF TIME STEP  100, STRESS PERIOD    2
1
  VOLUMETRIC BUDGET FOR ENTIRE MODEL AT END OF TIME STEP  100, STRESS PERIOD   2
  ------------------------------------------------------------------------------

     CUMULATIVE VOLUMES      L**3       RATES FOR THIS TIME STEP      L**3/T
     ------------------                 ------------------------

           IN:                                      IN:
           ---                                      ---
             STORAGE =         683.3799               STORAGE =           0.0000
       CONSTANT HEAD =       66197.0625         CONSTANT HEAD =         452.4171
               WELLS =       20600.0000                 WELLS =         200.0000
       RIVER LEAKAGE =      211534.9844         RIVER LEAKAGE =         507.2210

            TOTAL IN =      299015.4375              TOTAL IN =        1159.6382

          OUT:                                     OUT:
          ----                                     ----
             STORAGE =      242742.3750               STORAGE =         609.6396
       CONSTANT HEAD =           0.0000         CONSTANT HEAD =           0.0000
               WELLS =       55600.0000                 WELLS =         550.0000
       RIVER LEAKAGE =         673.0626         RIVER LEAKAGE =           0.0000

           TOTAL OUT =      299015.4375             TOTAL OUT =        1159.6396

            IN - OUT =           0.0000              IN - OUT =      -1.4648E-03

 PERCENT DISCREPANCY =           0.00     PERCENT DISCREPANCY =          -0.00






         TIME SUMMARY AT END OF TIME STEP  100 IN STRESS PERIOD    2
                    SECONDS     MINUTES      HOURS       DAYS        YEARS
                    -----------------------------------------------------------
   TIME STEP LENGTH  86400.      1440.0      24.000      1.0000     2.73785E-03
 STRESS PERIOD TIME 8.64000E+06 1.44000E+05  2400.0      100.00     0.27379    
         TOTAL TIME 8.72640E+06 1.45440E+05  2424.0      101.00     0.27652    
1
1
                            STRESS PERIOD NO.    3, LENGTH =   100.0000    
                            -----------------------------------------------

                              NUMBER OF TIME STEPS =   100

                               MULTIPLIER FOR DELT =     1.000

                            INITIAL TIME STEP SIZE =   1.000000    

 WELL NO.  LAYER   ROW   COL   STRESS RATE         
 --------------------------------------------------
      1      1      4      4      -100.0    
      2      1      6     12       500.0    
      3      1     19      6       100.0    

      3 WELLS

 REACH NO.  LAYER   ROW   COL     STAGE      CONDUCTANCE     BOTTOM EL.         
 -------------------------------------------------------------------------------
      1      1     15      1       2.000           2500.           0.000    
      2      1     15      2       2.000           2500.           0.000    
      3      1     15      3       2.000           2500.           0.000    
      4      1     15      4       2.000           2500.           0.000    
      5      1     15      5       2.000           2500.           0.000    
      6      1     15      6       2.000           2500.           0.000    
      7      1     15      7       2.000           2500.           0.000    
      8      1     15      8       2.000           2500.           0.000    
      9      1     15      9       2.000           2500.           0.000    
     10      1     15     10       2.000           2500.           0.000    
     11      1     15     11       2.000           2500.           0.000    
     12      1     15     12       2.000           2500.           0.000    
     13      1     15     13       2.000           2500.           0.000    
     14      1     15     14       2.000           2500.           0.000    
     15      1     15     15       2.000           2500.           0.000    

     15 RIVER REACHES

 CHD NO.   LAYER   ROW   COL    START HEAD        END HEAD         
 ------------------------------------------------------------------
      1      1      1      1       6.000           1.000    
      2      1      1      2       6.000           1.000    
      3      1      1      3       6.000           1.000    
      4      1      1      4       6.000           1.000    
      5      1      1      5       6.000           1.000    
      6      1      1      6       6.000           1.000    
      7      1      1      7       6.000           1.000    
      8      1      1      8       6.000           1.000    
      9      1      1      9       6.000           1.000    
     10      1      1     10       6.000           1.000    
     11      1      1     11       6.000           1.000    
     12      1      1     12       6.000           1.000    
     13      1      1     13       6.000           1.000    
     14      1      1     14       6.000           1.000    
     15      1      1     15       6.000           1.000    


     15 TIME-VARIANT SPECIFIED-HEAD CELLS
 
 SOLVING FOR HEAD 

 OUTPUT CONTROL FOR STRESS PERIOD    3   TIME STEP    1
    SAVE HEAD FOR ALL LAYERS
    SAVE DRAWDOWN FOR ALL LAYERS
    SAVE BUDGET
    PRINT HEAD FOR ALL LAYERS
    PRINT BUDGET
 UBDSV1 SAVING "         STORAGE" ON UNIT   1 AT TIME STEP  1, STRESS PERIOD   3
 UBDSV2 SAVING "   CONSTANT HEAD" ON UNIT   1 AT TIME STEP  1, STRESS PERIOD   3
 UBDSV1 SAVING "FLOW RIGHT FACE " ON UNIT   1 AT TIME STEP  1, STRESS PERIOD   3
 UBDSV1 SAVING "FLOW FRONT FACE " ON UNIT   1 AT TIME STEP  1, STRESS PERIOD   3
1
              HEAD IN LAYER   1 AT END OF TIME STEP   1 IN STRESS PERIOD    3
  ---------------------------------------------------------------------------

            1           2           3           4           5           6           7           8           9          10
           11          12          13          14          15
 ........................................................................................................................
   1    5.950       5.950       5.950       5.950       5.950       5.950       5.950       5.950       5.950       5.950    
        5.950       5.950       5.950       5.950       5.950    
   2    5.166       5.136       5.089       5.072       5.190       5.351       5.527       5.698       5.811       5.862    
        5.905       5.934       5.946       5.947       5.945    
   3    4.407       4.335       4.194       4.058       4.383       4.738       5.107       5.451       5.677       5.782    
        5.875       5.939       5.955       5.948       5.939    
   4    3.854       3.747       3.470       2.848       3.716       4.266       4.722       5.219       5.557       5.723    
        5.882       6.002       5.995       5.958       5.933    
   5    3.553       3.490       3.366       3.261       3.640       4.065       4.498       4.995       5.449       5.681    
        5.944       6.211       6.083       5.969       5.914    
   6    3.456       3.436       3.417       3.461       3.693       4.014       4.395       4.869       5.347       5.625    
        6.029       6.848       6.182       5.942       5.856    
   7    3.506       3.512       3.539       3.621       3.797       4.048       4.368       4.787       5.220       5.461    
        5.736       6.012       5.892       5.783       5.731    
   8    3.665       3.681       3.722       3.805       3.944       4.141       4.397       4.736       5.081       5.280    
        5.467       5.608       5.616       5.589       5.569    
   9    3.905       3.922       3.961       4.030       4.136       4.282       4.473       4.725       4.966       5.124    
        5.259       5.356       5.394       5.401       5.399    
  10    4.200       4.214       4.243       4.292       4.363       4.460       4.586       4.751       4.904       4.997    
        5.102       5.173       5.213       5.230       5.235    
  11    4.506       4.514       4.530       4.556       4.593       4.642       4.704       4.784       4.863       4.920    
        4.980       5.027       5.057       5.072       5.079    
  12    4.587       4.591       4.599       4.612       4.629       4.651       4.678       4.712       4.780       4.826    
        4.864       4.896       4.912       4.920       4.923    
  13    4.449       4.452       4.457       4.465       4.476       4.490       4.506       4.526       4.563       4.589    
        4.610       4.627       4.640       4.646       4.648    
  14    3.951       3.952       3.954       3.958       3.963       3.970       3.977       3.981       3.962       3.966    
        3.975       3.983       3.989       3.993       3.995    
  15    2.543       2.542       2.541       2.541       2.540       2.540       2.542       2.544       2.544       2.546    
        2.548       2.550       2.552       2.552       2.553    
  16    3.939       3.933       3.923       3.909       3.896       3.893       3.903       3.922       3.942       3.962    
        3.978       3.990       3.999       4.004       4.007    
  17    4.436       4.424       4.403       4.374       4.346       4.335       4.357       4.395       4.437       4.473    
        4.503       4.525       4.541       4.551       4.555    
  18    4.594       4.577       4.544       4.498       4.450       4.429       4.464       4.528       4.591       4.644    
        4.685       4.716       4.738       4.752       4.758    
  19    4.633       4.612       4.570       4.509       4.444       4.439       4.461       4.544       4.624       4.691    
        4.741       4.779       4.805       4.821       4.829    
  20    4.637       4.614       4.568       4.504       4.437       4.406       4.455       4.542       4.628       4.699    
        4.755       4.796       4.824       4.842       4.851    

 HEAD WILL BE SAVED ON UNIT   51 AT END OF TIME STEP    1, STRESS PERIOD    3

 DRAWDOWN WILL BE SAVED ON UNIT   52 AT END OF TIME STEP    1, STRESS PERIOD    3
1
  VOLUMETRIC BUDGET FOR ENTIRE MODEL AT END OF TIME STEP    1, STRESS PERIOD   3
  ------------------------------------------------------------------------------

     CUMULATIVE VOLUMES      L**3       RATES FOR THIS TIME STEP      L**3/T
     ------------------                 ------------------------

           IN:                                      IN:
           ---                                      ---
             STORAGE =       21164.7383               STORAGE =       20481.3574
       CONSTANT HEAD =       66542.1875         CONSTANT HEAD =         345.1246
               WELLS =       21200.0000                 WELLS =         600.0000
       RIVER LEAKAGE =      211534.9844         RIVER LEAKAGE =           0.0000

            TOTAL IN =      320441.9062              TOTAL IN =       21426.4824

          OUT:                                     OUT:
          ----                                     ----
             STORAGE =      243623.3438               STORAGE =         880.9654
       CONSTANT HEAD =           0.0000         CONSTANT HEAD =           0.0000
               WELLS =       55700.0000                 WELLS =         100.0000
       RIVER LEAKAGE =       21118.5801         RIVER LEAKAGE =       20445.5176

           TOTAL OUT =      320441.9375             TOTAL OUT =       21426.4824

            IN - OUT =      -3.1250E-02              IN - OUT =           0.0000

 PERCENT DISCREPANCY =          -0.00     PERCENT DISCREPANCY =           0.00






         TIME SUMMARY AT END OF TIME STEP    1 IN STRESS PERIOD    3
                    SECONDS     MINUTES      HOURS       DAYS        YEARS
                    -----------------------------------------------------------
   TIME STEP LENGTH  86400.      1440.0      24.000      1.0000     2.73785E-03
 STRESS PERIOD TIME  86400.      1440.0      24.000      1.0000     2.73785E-03
         TOTAL TIME 8.81280E+06 1.46880E+05  2448.0      102.00     0.27926    
1
 
 SOLVING FOR HEAD 

 OUTPUT CONTROL FOR STRESS PERIOD    3   TIME STEP    2
    SAVE HEAD FOR ALL LAYERS
    SAVE DRAWDOWN FOR ALL LAYERS
    SAVE BUDGET
    PRINT HEAD FOR ALL LAYERS
    PRINT BUDGET
 UBDSV1 SAVING "         STORAGE" ON UNIT   1 AT TIME STEP  2, STRESS PERIOD   3
 UBDSV2 SAVING "   CONSTANT HEAD" ON UNIT   1 AT TIME STEP  2, STRESS PERIOD   3
 UBDSV1 SAVING "FLOW RIGHT FACE " ON UNIT   1 AT TIME STEP  2, STRESS PERIOD   3
 UBDSV1 SAVING "FLOW FRONT FACE " ON UNIT   1 AT TIME STEP  2, STRESS PERIOD   3
1
              HEAD IN LAYER   1 AT END OF TIME STEP   2 IN STRESS PERIOD    3
  ---------------------------------------------------------------------------

            1           2           3           4           5           6           7           8           9          10
           11          12          13          14          15
 ........................................................................................................................
   1    5.900       5.900       5.900       5.900       5.900       5.900       5.900       5.900       5.900       5.900    
        5.900       5.900       5.900       5.900       5.900    
   2    5.156       5.128       5.086       5.075       5.186       5.344       5.517       5.689       5.801       5.853    
        5.898       5.928       5.939       5.939       5.937    
   3    4.432       4.364       4.234       4.121       4.422       4.768       5.132       5.479       5.706       5.813    
        5.909       5.975       5.990       5.980       5.970    
   4    3.886       3.785       3.537       3.021       3.783       4.308       4.768       5.284       5.619       5.788    
        5.953       6.076       6.067       6.024       5.996    
   5    3.584       3.522       3.409       3.326       3.684       4.103       4.549       5.118       5.537       5.771    
        6.044       6.317       6.183       6.060       5.999    
   6    3.483       3.464       3.448       3.496       3.726       4.048       4.438       4.941       5.438       5.724    
        6.142       6.973       6.295       6.042       5.949    
   7    3.530       3.536       3.564       3.647       3.823       4.077       4.405       4.848       5.307       5.555    
        5.838       6.119       5.991       5.872       5.813    
   8    3.685       3.701       3.743       3.826       3.966       4.165       4.428       4.788       5.164       5.357    
        5.544       5.683       5.685       5.650       5.625    
   9    3.918       3.935       3.974       4.043       4.150       4.298       4.494       4.759       5.023       5.173    
        5.302       5.392       5.423       5.423       5.417    
  10    4.194       4.207       4.236       4.285       4.358       4.456       4.585       4.757       4.916       5.015    
        5.103       5.164       5.193       5.203       5.205    
  11    4.424       4.432       4.448       4.475       4.512       4.563       4.628       4.717       4.808       4.872    
        4.930       4.966       4.982       4.989       4.991    
  12    4.331       4.335       4.344       4.357       4.375       4.399       4.431       4.480       4.598       4.662    
        4.704       4.733       4.749       4.757       4.760    
  13    4.060       4.063       4.068       4.076       4.088       4.103       4.122       4.147       4.189       4.221    
        4.243       4.261       4.272       4.278       4.281    
  14    3.422       3.423       3.425       3.429       3.435       3.442       3.449       3.449       3.415       3.416    
        3.423       3.431       3.437       3.440       3.442    
  15    2.270       2.270       2.269       2.269       2.269       2.269       2.270       2.272       2.271       2.272    
        2.274       2.276       2.277       2.278       2.278    
  16    3.419       3.414       3.406       3.396       3.388       3.387       3.394       3.408       3.425       3.441    
        3.456       3.467       3.476       3.481       3.484    
  17    4.069       4.060       4.043       4.024       4.008       4.007       4.019       4.045       4.077       4.108    
        4.135       4.155       4.170       4.180       4.185    
  18    4.385       4.371       4.347       4.319       4.299       4.305       4.313       4.348       4.393       4.437    
        4.474       4.503       4.523       4.537       4.543    
  19    4.519       4.503       4.473       4.439       4.423       4.486       4.439       4.473       4.527       4.581    
        4.626       4.660       4.685       4.701       4.709    
  20    4.566       4.548       4.515       4.476       4.447       4.452       4.465       4.513       4.574       4.633    
        4.682       4.719       4.746       4.764       4.772    

 HEAD WILL BE SAVED ON UNIT   51 AT END OF TIME STEP    2, STRESS PERIOD    3

 DRAWDOWN WILL BE SAVED ON UNIT   52 AT END OF TIME STEP    2, STRESS PERIOD    3
1
  VOLUMETRIC BUDGET FOR ENTIRE MODEL AT END OF TIME STEP    2, STRESS PERIOD   3
  ------------------------------------------------------------------------------

     CUMULATIVE VOLUMES      L**3       RATES FOR THIS TIME STEP      L**3/T
     ------------------                 ------------------------

           IN:                                      IN:
           ---                                      ---
             STORAGE =       31164.5234               STORAGE =        9999.7842
       CONSTANT HEAD =       66842.6328         CONSTANT HEAD =         300.4432
               WELLS =       21800.0000                 WELLS =         600.0000
       RIVER LEAKAGE =      211534.9844         RIVER LEAKAGE =           0.0000

            TOTAL IN =      331342.1250              TOTAL IN =       10900.2275

          OUT:                                     OUT:
          ----                                     ----
             STORAGE =      244193.3281               STORAGE =         569.9856
       CONSTANT HEAD =          23.6718         CONSTANT HEAD =          23.6718
               WELLS =       55800.0000                 WELLS =         100.0000
       RIVER LEAKAGE =       31325.1504         RIVER LEAKAGE =       10206.5703

           TOTAL OUT =      331342.1562             TOTAL OUT =       10900.2275

            IN - OUT =      -3.1250E-02              IN - OUT =           0.0000

 PERCENT DISCREPANCY =          -0.00     PERCENT DISCREPANCY =           0.00






         TIME SUMMARY AT END OF TIME STEP    2 IN STRESS PERIOD    3
                    SECONDS     MINUTES      HOURS       DAYS        YEARS
                    -----------------------------------------------------------
   TIME STEP LENGTH  86400.      1440.0      24.000      1.0000     2.73785E-03
 STRESS PERIOD TIME 1.72800E+05  2880.0      48.000      2.0000     5.47570E-03
         TOTAL TIME 8.89920E+06 1.48320E+05  2472.0      103.00     0.28200    
1
 
 SOLVING FOR HEAD 

 OUTPUT CONTROL FOR STRESS PERIOD    3   TIME STEP    3
    SAVE HEAD FOR ALL LAYERS
    SAVE DRAWDOWN FOR ALL LAYERS
    SAVE BUDGET
    PRINT HEAD FOR ALL LAYERS
    PRINT BUDGET
 UBDSV1 SAVING "         STORAGE" ON UNIT   1 AT TIME STEP  3, STRESS PERIOD   3
 UBDSV2 SAVING "   CONSTANT HEAD" ON UNIT   1 AT TIME STEP  3, STRESS PERIOD   3
 UBDSV1 SAVING "FLOW RIGHT FACE " ON UNIT   1 AT TIME STEP  3, STRESS PERIOD   3
 UBDSV1 SAVING "FLOW FRONT FACE " ON UNIT   1 AT TIME STEP  3, STRESS PERIOD   3
1
              HEAD IN LAYER   1 AT END OF TIME STEP   3 IN STRESS PERIOD    3
  ---------------------------------------------------------------------------

            1           2           3           4           5           6           7           8           9          10
           11          12          13          14          15
 ........................................................................................................................
   1    5.850       5.850       5.850       5.850       5.850       5.850       5.850       5.850       5.850       5.850    
        5.850       5.850       5.850       5.850       5.850    
   2    5.142       5.117       5.080       5.073       5.180       5.332       5.500       5.668       5.776       5.827    
        5.871       5.900       5.911       5.910       5.908    
   3    4.453       4.389       4.271       4.177       4.459       4.794       5.146       5.485       5.704       5.809    
        5.903       5.968       5.981       5.971       5.960    
   4    3.917       3.823       3.600       3.144       3.849       4.351       4.807       5.313       5.637       5.802    
        5.964       6.086       6.074       6.030       6.001    
   5    3.614       3.556       3.454       3.391       3.731       4.144       4.597       5.167       5.569       5.798    
        6.067       6.337       6.200       6.076       6.014    
   6    3.511       3.493       3.480       3.533       3.760       4.083       4.482       5.000       5.476       5.756    
        6.170       6.997       6.316       6.060       5.966    
   7    3.555       3.561       3.590       3.674       3.851       4.107       4.444       4.901       5.343       5.584    
        5.861       6.138       6.006       5.885       5.825    
   8    3.705       3.721       3.762       3.846       3.987       4.189       4.459       4.832       5.195       5.377    
        5.555       5.690       5.688       5.650       5.624    
   9    3.927       3.944       3.984       4.053       4.160       4.310       4.512       4.786       5.047       5.176    
        5.293       5.378       5.405       5.403       5.397    
  10    4.173       4.187       4.216       4.265       4.338       4.438       4.571       4.749       4.902       4.988    
        5.064       5.121       5.150       5.160       5.162    
  11    4.310       4.318       4.334       4.361       4.400       4.452       4.522       4.621       4.724       4.792    
        4.849       4.889       4.911       4.921       4.925    
  12    4.071       4.076       4.084       4.098       4.117       4.144       4.183       4.245       4.401       4.481    
        4.528       4.558       4.575       4.584       4.588    
  13    3.746       3.749       3.755       3.764       3.776       3.793       3.816       3.844       3.888       3.924    
        3.950       3.967       3.979       3.985       3.988    
  14    3.122       3.123       3.126       3.130       3.136       3.144       3.152       3.152       3.115       3.115    
        3.122       3.130       3.136       3.139       3.141    
  15    2.202       2.202       2.201       2.201       2.201       2.202       2.203       2.204       2.202       2.203    
        2.205       2.207       2.208       2.208       2.209    
  16    3.133       3.129       3.123       3.117       3.113       3.114       3.119       3.129       3.141       3.155    
        3.167       3.178       3.186       3.191       3.194    
  17    3.785       3.779       3.768       3.756       3.751       3.754       3.761       3.777       3.800       3.825    
        3.848       3.867       3.881       3.890       3.894    
  18    4.175       4.166       4.150       4.136       4.134       4.151       4.148       4.165       4.195       4.229    
        4.261       4.286       4.305       4.318       4.324    
  19    4.378       4.367       4.349       4.334       4.343       4.426       4.359       4.367       4.402       4.443    
        4.480       4.511       4.534       4.549       4.556    
  20    4.462       4.449       4.429       4.410       4.406       4.426       4.423       4.446       4.487       4.532    
        4.573       4.606       4.631       4.647       4.655    

 HEAD WILL BE SAVED ON UNIT   51 AT END OF TIME STEP    3, STRESS PERIOD    3

 DRAWDOWN WILL BE SAVED ON UNIT   52 AT END OF TIME STEP    3, STRESS PERIOD    3
1
  VOLUMETRIC BUDGET FOR ENTIRE MODEL AT END OF TIME STEP    3, STRESS PERIOD   3
  ------------------------------------------------------------------------------

     CUMULATIVE VOLUMES      L**3       RATES FOR THIS TIME STEP      L**3/T
     ------------------                 ------------------------

           IN:                                      IN:
           ---                                      ---
             STORAGE =       38526.8008               STORAGE =        7362.2759
       CONSTANT HEAD =       67117.5156         CONSTANT HEAD =         274.8842
               WELLS =       22400.0000                 WELLS =         600.0000
       RIVER LEAKAGE =      211534.9844         RIVER LEAKAGE =           0.0000

            TOTAL IN =      339579.3125              TOTAL IN =        8237.1602

          OUT:                                     OUT:
          ----                                     ----
             STORAGE =      244644.6094               STORAGE =         451.2857
       CONSTANT HEAD =          65.0000         CONSTANT HEAD =          41.3282
               WELLS =       55900.0000                 WELLS =         100.0000
       RIVER LEAKAGE =       38969.6953         RIVER LEAKAGE =        7644.5454

           TOTAL OUT =      339579.3125             TOTAL OUT =        8237.1592

            IN - OUT =           0.0000              IN - OUT =       9.7656E-04

 PERCENT DISCREPANCY =           0.00     PERCENT DISCREPANCY =           0.00






         TIME SUMMARY AT END OF TIME STEP    3 IN STRESS PERIOD    3
                    SECONDS     MINUTES      HOURS       DAYS        YEARS
                    -----------------------------------------------------------
   TIME STEP LENGTH  86400.      1440.0      24.000      1.0000     2.73785E-03
 STRESS PERIOD TIME 2.59200E+05  4320.0      72.000      3.0000     8.21355E-03
         TOTAL TIME 8.98560E+06 1.49760E+05  2496.0      104.00     0.28474    
1
 
 SOLVING FOR HEAD 

 OUTPUT CONTROL FOR STRESS PERIOD    3   TIME STEP    4
    SAVE HEAD FOR ALL LAYERS
    SAVE DRAWDOWN FOR ALL LAYERS
    SAVE BUDGET
    PRINT HEAD FOR ALL LAYERS
    PRINT BUDGET
 UBDSV1 SAVING "         STORAGE" ON UNIT   1 AT TIME STEP  4, STRESS PERIOD   3
 UBDSV2 SAVING "   CONSTANT HEAD" ON UNIT   1 AT TIME STEP  4, STRESS PERIOD   3
 UBDSV1 SAVING "FLOW RIGHT FACE " ON UNIT   1 AT TIME STEP  4, STRESS PERIOD   3
 UBDSV1 SAVING "FLOW FRONT FACE " ON UNIT   1 AT TIME STEP  4, STRESS PERIOD   3
1
              HEAD IN LAYER   1 AT END OF TIME STEP   4 IN STRESS PERIOD    3
  ---------------------------------------------------------------------------

            1           2           3           4           5           6           7           8           9          10
           11          12          13          14          15
 ........................................................................................................................
   1    5.800       5.800       5.800       5.800       5.800       5.800       5.800       5.800       5.800       5.800    
        5.800       5.800       5.800       5.800       5.800    
   2    5.127       5.104       5.071       5.068       5.171       5.318       5.479       5.640       5.744       5.793    
        5.834       5.863       5.872       5.871       5.868    
   3    4.470       4.411       4.305       4.224       4.493       4.815       5.154       5.479       5.689       5.789    
        5.879       5.941       5.952       5.940       5.929    
   4    3.946       3.860       3.659       3.236       3.908       4.392       4.841       5.328       5.637       5.794    
        5.950       6.067       6.053       6.007       5.977    
   5    3.645       3.591       3.500       3.451       3.780       4.186       4.641       5.206       5.581       5.799    
        6.059       6.323       6.183       6.056       5.992    
   6    3.539       3.523       3.513       3.571       3.796       4.120       4.530       5.091       5.498       5.761    
        6.164       6.984       6.297       6.039       5.943    
   7    3.578       3.585       3.615       3.701       3.879       4.138       4.482       4.947       5.357       5.583    
        5.850       6.119       5.982       5.858       5.796    
   8    3.722       3.739       3.781       3.865       4.007       4.212       4.488       4.863       5.196       5.366    
        5.533       5.660       5.653       5.612       5.584    
   9    3.931       3.948       3.988       4.058       4.166       4.318       4.524       4.800       5.032       5.150    
        5.254       5.331       5.354       5.350       5.342    
  10    4.140       4.153       4.183       4.233       4.306       4.408       4.545       4.724       4.863       4.944    
        5.001       5.052       5.078       5.087       5.088    
  11    4.180       4.188       4.205       4.232       4.272       4.326       4.401       4.509       4.624       4.694    
        4.750       4.790       4.813       4.824       4.828    
  12    3.838       3.843       3.852       3.866       3.887       3.917       3.961       4.034       4.217       4.309    
        4.360       4.391       4.410       4.420       4.424    
  13    3.502       3.505       3.511       3.520       3.534       3.553       3.579       3.612       3.658       3.698    
        3.726       3.745       3.757       3.763       3.766    
  14    2.930       2.931       2.934       2.939       2.946       2.955       2.964       2.966       2.932       2.933    
        2.941       2.949       2.955       2.958       2.960    
  15    2.167       2.167       2.167       2.167       2.167       2.168       2.169       2.170       2.168       2.169    
        2.171       2.172       2.173       2.174       2.174    
  16    2.956       2.954       2.950       2.948       2.947       2.949       2.953       2.959       2.968       2.979    
        2.989       2.998       3.006       3.010       3.013    
  17    3.571       3.567       3.561       3.557       3.558       3.564       3.568       3.577       3.593       3.612    
        3.631       3.647       3.660       3.668       3.672    
  18    3.985       3.980       3.972       3.969       3.977       4.000       3.991       3.996       4.016       4.041    
        4.067       4.089       4.106       4.117       4.123    
  19    4.227       4.221       4.212       4.211       4.235       4.325       4.251       4.244       4.264       4.294    
        4.324       4.350       4.371       4.384       4.391    
  20    4.336       4.329       4.319       4.314       4.326       4.354       4.343       4.350       4.375       4.408    
        4.441       4.469       4.492       4.506       4.514    

 HEAD WILL BE SAVED ON UNIT   51 AT END OF TIME STEP    4, STRESS PERIOD    3

 DRAWDOWN WILL BE SAVED ON UNIT   52 AT END OF TIME STEP    4, STRESS PERIOD    3
1
  VOLUMETRIC BUDGET FOR ENTIRE MODEL AT END OF TIME STEP    4, STRESS PERIOD   3
  ------------------------------------------------------------------------------

     CUMULATIVE VOLUMES      L**3       RATES FOR THIS TIME STEP      L**3/T
     ------------------                 ------------------------

           IN:                                      IN:
           ---                                      ---
             STORAGE =       44571.9727               STORAGE =        6045.1733
       CONSTANT HEAD =       67371.1562         CONSTANT HEAD =         253.6420
               WELLS =       23000.0000                 WELLS =         600.0000
       RIVER LEAKAGE =      211534.9844         RIVER LEAKAGE =           0.0000

            TOTAL IN =      346478.1250              TOTAL IN =        6898.8154

          OUT:                                     OUT:
          ----                                     ----
             STORAGE =      245038.2031               STORAGE =         393.5879
       CONSTANT HEAD =         115.8032         CONSTANT HEAD =          50.8032
               WELLS =       56000.0000                 WELLS =         100.0000
       RIVER LEAKAGE =       45324.1211         RIVER LEAKAGE =        6354.4248

           TOTAL OUT =      346478.1250             TOTAL OUT =        6898.8159

            IN - OUT =           0.0000              IN - OUT =      -4.8828E-04

 PERCENT DISCREPANCY =           0.00     PERCENT DISCREPANCY =          -0.00






         TIME SUMMARY AT END OF TIME STEP    4 IN STRESS PERIOD    3
                    SECONDS     MINUTES      HOURS       DAYS        YEARS
                    -----------------------------------------------------------
   TIME STEP LENGTH  86400.      1440.0      24.000      1.0000     2.73785E-03
 STRESS PERIOD TIME 3.45600E+05  5760.0      96.000      4.0000     1.09514E-02
         TOTAL TIME 9.07200E+06 1.51200E+05  2520.0      105.00     0.28747    
1
 
 SOLVING FOR HEAD 

 OUTPUT CONTROL FOR STRESS PERIOD    3   TIME STEP    5
    SAVE HEAD FOR ALL LAYERS
    SAVE DRAWDOWN FOR ALL LAYERS
    SAVE BUDGET
    PRINT HEAD FOR ALL LAYERS
    PRINT BUDGET
 UBDSV1 SAVING "         STORAGE" ON UNIT   1 AT TIME STEP  5, STRESS PERIOD   3
 UBDSV2 SAVING "   CONSTANT HEAD" ON UNIT   1 AT TIME STEP  5, STRESS PERIOD   3
 UBDSV1 SAVING "FLOW RIGHT FACE " ON UNIT   1 AT TIME STEP  5, STRESS PERIOD   3
 UBDSV1 SAVING "FLOW FRONT FACE " ON UNIT   1 AT TIME STEP  5, STRESS PERIOD   3
1
              HEAD IN LAYER   1 AT END OF TIME STEP   5 IN STRESS PERIOD    3
  ---------------------------------------------------------------------------

            1           2           3           4           5           6           7           8           9          10
           11          12          13          14          15
 ........................................................................................................................
   1    5.750       5.750       5.750       5.750       5.750       5.750       5.750       5.750       5.750       5.750    
        5.750       5.750       5.750       5.750       5.750    
   2    5.110       5.090       5.060       5.061       5.160       5.301       5.455       5.608       5.706       5.753    
        5.793       5.819       5.828       5.826       5.822    
   3    4.485       4.430       4.334       4.264       4.523       4.833       5.155       5.465       5.663       5.758    
        5.845       5.903       5.913       5.900       5.888    
   4    3.975       3.895       3.711       3.310       3.962       4.430       4.868       5.329       5.620       5.771    
        5.921       6.034       6.016       5.969       5.938    
   5    3.676       3.627       3.545       3.508       3.828       4.227       4.679       5.217       5.572       5.780    
        6.033       6.292       6.147       6.018       5.953    
   6    3.567       3.553       3.547       3.610       3.833       4.157       4.570       5.111       5.492       5.744    
        6.138       6.951       6.260       5.998       5.901    
   7    3.602       3.609       3.641       3.728       3.907       4.169       4.518       4.978       5.350       5.564    
        5.821       6.083       5.940       5.812       5.748    
   8    3.738       3.754       3.797       3.882       4.026       4.233       4.513       4.883       5.181       5.338    
        5.497       5.615       5.602       5.556       5.527    
   9    3.929       3.947       3.987       4.057       4.167       4.321       4.529       4.800       5.001       5.110    
        5.210       5.276       5.291       5.281       5.271    
  10    4.096       4.110       4.139       4.190       4.265       4.369       4.508       4.687       4.810       4.888    
        4.951       4.985       4.998       5.001       5.000    
  11    4.046       4.054       4.071       4.099       4.140       4.197       4.277       4.393       4.519       4.592    
        4.649       4.686       4.706       4.716       4.719    
  12    3.638       3.643       3.652       3.668       3.690       3.723       3.773       3.853       4.054       4.156    
        4.210       4.242       4.260       4.270       4.274    
  13    3.310       3.313       3.319       3.330       3.345       3.366       3.395       3.432       3.481       3.526    
        3.555       3.575       3.587       3.594       3.597    
  14    2.795       2.796       2.800       2.805       2.813       2.823       2.833       2.838       2.808       2.812    
        2.821       2.829       2.835       2.839       2.840    
  15    2.143       2.143       2.144       2.144       2.145       2.146       2.147       2.148       2.146       2.147    
        2.148       2.150       2.151       2.151       2.152    
  16    2.835       2.834       2.833       2.833       2.834       2.838       2.840       2.844       2.850       2.858    
        2.867       2.875       2.881       2.885       2.887    
  17    3.406       3.404       3.402       3.403       3.408       3.417       3.418       3.423       3.433       3.447    
        3.462       3.475       3.486       3.494       3.498    
  18    3.819       3.817       3.815       3.819       3.834       3.860       3.847       3.846       3.857       3.875    
        3.895       3.913       3.928       3.938       3.944    
  19    4.078       4.075       4.074       4.082       4.115       4.209       4.130       4.114       4.124       4.144    
        4.168       4.190       4.207       4.220       4.226    
  20    4.200       4.198       4.196       4.201       4.222       4.254       4.239       4.236       4.249       4.272    
        4.298       4.322       4.341       4.354       4.360    

 HEAD WILL BE SAVED ON UNIT   51 AT END OF TIME STEP    5, STRESS PERIOD    3

 DRAWDOWN WILL BE SAVED ON UNIT   52 AT END OF TIME STEP    5, STRESS PERIOD    3
1
  VOLUMETRIC BUDGET FOR ENTIRE MODEL AT END OF TIME STEP    5, STRESS PERIOD   3
  ------------------------------------------------------------------------------

     CUMULATIVE VOLUMES      L**3       RATES FOR THIS TIME STEP      L**3/T
     ------------------                 ------------------------

           IN:                                      IN:
           ---                                      ---
             STORAGE =       49748.6367               STORAGE =        5176.6646
       CONSTANT HEAD =       67606.8672         CONSTANT HEAD =         235.7077
               WELLS =       23600.0000                 WELLS =         600.0000
       RIVER LEAKAGE =      211534.9844         RIVER LEAKAGE =           0.0000

            TOTAL IN =      352490.5000              TOTAL IN =        6012.3721

          OUT:                                     OUT:
          ----                                     ----
             STORAGE =      245384.6250               STORAGE =         346.4280
       CONSTANT HEAD =         172.0314         CONSTANT HEAD =          56.2282
               WELLS =       56100.0000                 WELLS =         100.0000
       RIVER LEAKAGE =       50833.8359         RIVER LEAKAGE =        5509.7153

           TOTAL OUT =      352490.5000             TOTAL OUT =        6012.3716

            IN - OUT =           0.0000              IN - OUT =       4.8828E-04

 PERCENT DISCREPANCY =           0.00     PERCENT DISCREPANCY =           0.00






         TIME SUMMARY AT END OF TIME STEP    5 IN STRESS PERIOD    3
                    SECONDS     MINUTES      HOURS       DAYS        YEARS
                    -----------------------------------------------------------
   TIME STEP LENGTH  86400.      1440.0      24.000      1.0000     2.73785E-03
 STRESS PERIOD TIME 4.32000E+05  7200.0      120.00      5.0000     1.36893E-02
         TOTAL TIME 9.15840E+06 1.52640E+05  2544.0      106.00     0.29021    
1
 
 SOLVING FOR HEAD 

 OUTPUT CONTROL FOR STRESS PERIOD    3   TIME STEP    6
    SAVE HEAD FOR ALL LAYERS
    SAVE DRAWDOWN FOR ALL LAYERS
    SAVE BUDGET
    PRINT HEAD FOR ALL LAYERS
    PRINT BUDGET
 UBDSV1 SAVING "         STORAGE" ON UNIT   1 AT TIME STEP  6, STRESS PERIOD   3
 UBDSV2 SAVING "   CONSTANT HEAD" ON UNIT   1 AT TIME STEP  6, STRESS PERIOD   3
 UBDSV1 SAVING "FLOW RIGHT FACE " ON UNIT   1 AT TIME STEP  6, STRESS PERIOD   3
 UBDSV1 SAVING "FLOW FRONT FACE " ON UNIT   1 AT TIME STEP  6, STRESS PERIOD   3
1
              HEAD IN LAYER   1 AT END OF TIME STEP   6 IN STRESS PERIOD    3
  ---------------------------------------------------------------------------

            1           2           3           4           5           6           7           8           9          10
           11          12          13          14          15
 ........................................................................................................................
   1    5.700       5.700       5.700       5.700       5.700       5.700       5.700       5.700       5.700       5.700    
        5.700       5.700       5.700       5.700       5.700    
   2    5.093       5.074       5.048       5.050       5.146       5.282       5.429       5.574       5.667       5.711    
        5.749       5.774       5.782       5.779       5.776    
   3    4.497       4.447       4.360       4.297       4.548       4.847       5.153       5.445       5.632       5.723    
        5.806       5.863       5.870       5.856       5.844    
   4    4.003       3.929       3.759       3.371       4.011       4.465       4.889       5.323       5.598       5.742    
        5.888       5.997       5.977       5.927       5.896    
   5    3.706       3.661       3.589       3.560       3.874       4.266       4.710       5.219       5.555       5.755    
        6.003       6.257       6.109       5.978       5.912    
   6    3.594       3.583       3.582       3.648       3.870       4.194       4.605       5.119       5.478       5.721    
        6.108       6.916       6.222       5.958       5.860    
   7    3.624       3.633       3.666       3.755       3.935       4.198       4.549       4.997       5.337       5.539    
        5.789       6.046       5.900       5.771       5.706    
   8    3.751       3.768       3.811       3.898       4.043       4.252       4.533       4.893       5.163       5.309    
        5.460       5.575       5.560       5.514       5.484    
   9    3.923       3.940       3.980       4.051       4.162       4.319       4.528       4.792       4.976       5.070    
        5.164       5.232       5.247       5.238       5.228    
  10    4.045       4.058       4.089       4.139       4.216       4.322       4.463       4.640       4.751       4.825    
        4.892       4.936       4.955       4.959       4.958    
  11    3.915       3.924       3.941       3.970       4.013       4.072       4.157       4.280       4.416       4.493    
        4.551       4.590       4.611       4.621       4.624    
  12    3.470       3.474       3.484       3.501       3.525       3.561       3.614       3.701       3.913       4.022    
        4.079       4.112       4.132       4.141       4.145    
  13    3.157       3.160       3.167       3.178       3.195       3.218       3.250       3.290       3.342       3.391    
        3.423       3.444       3.456       3.463       3.466    
  14    2.693       2.695       2.698       2.704       2.713       2.724       2.736       2.743       2.719       2.725    
        2.735       2.744       2.750       2.754       2.756    
  15    2.126       2.126       2.127       2.127       2.128       2.130       2.131       2.131       2.130       2.131    
        2.132       2.134       2.135       2.135       2.136    
  16    2.745       2.745       2.746       2.747       2.751       2.755       2.757       2.759       2.763       2.769    
        2.775       2.782       2.787       2.791       2.793    
  17    3.273       3.273       3.274       3.279       3.287       3.297       3.297       3.298       3.304       3.314    
        3.325       3.336       3.346       3.352       3.356    
  18    3.673       3.673       3.676       3.685       3.705       3.733       3.718       3.711       3.716       3.728    
        3.743       3.758       3.771       3.779       3.784    
  19    3.935       3.936       3.940       3.954       3.992       4.089       4.007       3.985       3.987       4.000    
        4.018       4.035       4.050       4.060       4.066    
  20    4.063       4.063       4.067       4.080       4.107       4.141       4.123       4.113       4.118       4.133    
        4.152       4.171       4.187       4.198       4.204    

 HEAD WILL BE SAVED ON UNIT   51 AT END OF TIME STEP    6, STRESS PERIOD    3

 DRAWDOWN WILL BE SAVED ON UNIT   52 AT END OF TIME STEP    6, STRESS PERIOD    3
1
  VOLUMETRIC BUDGET FOR ENTIRE MODEL AT END OF TIME STEP    6, STRESS PERIOD   3
  ------------------------------------------------------------------------------

     CUMULATIVE VOLUMES      L**3       RATES FOR THIS TIME STEP      L**3/T
     ------------------                 ------------------------

           IN:                                      IN:
           ---                                      ---
             STORAGE =       54295.7617               STORAGE =        4547.1260
       CONSTANT HEAD =       67827.1797         CONSTANT HEAD =         220.3131
               WELLS =       24200.0000                 WELLS =         600.0000
       RIVER LEAKAGE =      211534.9844         RIVER LEAKAGE =           0.0000

            TOTAL IN =      357857.9375              TOTAL IN =        5367.4390

          OUT:                                     OUT:
          ----                                     ----
             STORAGE =      245695.5156               STORAGE =         310.8842
       CONSTANT HEAD =         233.1678         CONSTANT HEAD =          61.1364
               WELLS =       56200.0000                 WELLS =         100.0000
       RIVER LEAKAGE =       55729.2539         RIVER LEAKAGE =        4895.4194

           TOTAL OUT =      357857.9375             TOTAL OUT =        5367.4399

            IN - OUT =           0.0000              IN - OUT =      -9.7656E-04

 PERCENT DISCREPANCY =           0.00     PERCENT DISCREPANCY =          -0.00






         TIME SUMMARY AT END OF TIME STEP    6 IN STRESS PERIOD    3
                    SECONDS     MINUTES      HOURS       DAYS        YEARS
                    -----------------------------------------------------------
   TIME STEP LENGTH  86400.      1440.0      24.000      1.0000     2.73785E-03
 STRESS PERIOD TIME 5.18400E+05  8640.0      144.00      6.0000     1.64271E-02
         TOTAL TIME 9.24480E+06 1.54080E+05  2568.0      107.00     0.29295    
1
 
 SOLVING FOR HEAD 

 OUTPUT CONTROL FOR STRESS PERIOD    3   TIME STEP    7
    SAVE HEAD FOR ALL LAYERS
    SAVE DRAWDOWN FOR ALL LAYERS
    SAVE BUDGET
    PRINT HEAD FOR ALL LAYERS
    PRINT BUDGET
 UBDSV1 SAVING "         STORAGE" ON UNIT   1 AT TIME STEP  7, STRESS PERIOD   3
 UBDSV2 SAVING "   CONSTANT HEAD" ON UNIT   1 AT TIME STEP  7, STRESS PERIOD   3
 UBDSV1 SAVING "FLOW RIGHT FACE " ON UNIT   1 AT TIME STEP  7, STRESS PERIOD   3
 UBDSV1 SAVING "FLOW FRONT FACE " ON UNIT   1 AT TIME STEP  7, STRESS PERIOD   3
1
              HEAD IN LAYER   1 AT END OF TIME STEP   7 IN STRESS PERIOD    3
  ---------------------------------------------------------------------------

            1           2           3           4           5           6           7           8           9          10
           11          12          13          14          15
 ........................................................................................................................
   1    5.650       5.650       5.650       5.650       5.650       5.650       5.650       5.650       5.650       5.650    
        5.650       5.650       5.650       5.650       5.650    
   2    5.074       5.056       5.033       5.036       5.131       5.261       5.401       5.538       5.625       5.667    
        5.704       5.728       5.735       5.732       5.728    
   3    4.507       4.461       4.382       4.324       4.569       4.857       5.147       5.422       5.599       5.686    
        5.766       5.820       5.826       5.811       5.798    
   4    4.029       3.961       3.801       3.422       4.053       4.496       4.905       5.312       5.571       5.709    
        5.851       5.957       5.934       5.883       5.851    
   5    3.736       3.696       3.631       3.608       3.918       4.303       4.736       5.216       5.533       5.726    
        5.968       6.218       6.067       5.934       5.868    
   6    3.622       3.612       3.615       3.685       3.906       4.228       4.633       5.122       5.459       5.692    
        6.073       6.877       6.180       5.914       5.815    
   7    3.646       3.656       3.691       3.782       3.962       4.226       4.575       5.012       5.318       5.509    
        5.752       6.004       5.856       5.725       5.659    
   8    3.762       3.779       3.824       3.911       4.057       4.268       4.548       4.896       5.137       5.272    
        5.417       5.529       5.512       5.465       5.434    
   9    3.911       3.929       3.969       4.041       4.153       4.312       4.521       4.776       4.940       5.022    
        5.112       5.178       5.194       5.185       5.175    
  10    3.989       4.003       4.033       4.085       4.162       4.270       4.413       4.587       4.688       4.759    
        4.827       4.874       4.896       4.901       4.900    
  11    3.793       3.801       3.819       3.849       3.893       3.955       4.044       4.173       4.319       4.398    
        4.459       4.500       4.522       4.532       4.536    
  12    3.327       3.332       3.343       3.360       3.386       3.424       3.481       3.573       3.792       3.906    
        3.966       4.001       4.021       4.031       4.035    
  13    3.032       3.036       3.043       3.055       3.073       3.098       3.133       3.176       3.231       3.283    
        3.317       3.339       3.353       3.360       3.363    
  14    2.613       2.615       2.619       2.626       2.635       2.647       2.661       2.670       2.651       2.659    
        2.671       2.680       2.687       2.690       2.692    
  15    2.113       2.113       2.113       2.114       2.115       2.117       2.118       2.119       2.118       2.119    
        2.120       2.121       2.122       2.123       2.123    
  16    2.675       2.675       2.677       2.680       2.685       2.689       2.690       2.691       2.693       2.698    
        2.703       2.708       2.713       2.716       2.717    
  17    3.164       3.165       3.168       3.175       3.186       3.196       3.195       3.193       3.196       3.202    
        3.211       3.220       3.228       3.233       3.236    
  18    3.544       3.546       3.552       3.565       3.588       3.616       3.600       3.589       3.589       3.597    
        3.608       3.619       3.630       3.637       3.641    
  19    3.801       3.803       3.811       3.830       3.872       3.970       3.886       3.859       3.855       3.863    
        3.875       3.889       3.901       3.910       3.914    
  20    3.928       3.931       3.939       3.957       3.988       4.023       4.003       3.988       3.987       3.995    
        4.009       4.024       4.037       4.046       4.051    

 HEAD WILL BE SAVED ON UNIT   51 AT END OF TIME STEP    7, STRESS PERIOD    3

 DRAWDOWN WILL BE SAVED ON UNIT   52 AT END OF TIME STEP    7, STRESS PERIOD    3
1
  VOLUMETRIC BUDGET FOR ENTIRE MODEL AT END OF TIME STEP    7, STRESS PERIOD   3
  ------------------------------------------------------------------------------

     CUMULATIVE VOLUMES      L**3       RATES FOR THIS TIME STEP      L**3/T
     ------------------                 ------------------------

           IN:                                      IN:
           ---                                      ---
             STORAGE =       58352.2383               STORAGE =        4056.4773
       CONSTANT HEAD =       68033.1250         CONSTANT HEAD =         205.9416
               WELLS =       24800.0000                 WELLS =         600.0000
       RIVER LEAKAGE =      211534.9844         RIVER LEAKAGE =           0.0000

            TOTAL IN =      362720.3438              TOTAL IN =        4862.4189

          OUT:                                     OUT:
          ----                                     ----
             STORAGE =      245973.0625               STORAGE =         277.5402
       CONSTANT HEAD =         298.1580         CONSTANT HEAD =          64.9902
               WELLS =       56300.0000                 WELLS =         100.0000
       RIVER LEAKAGE =       60149.1406         RIVER LEAKAGE =        4419.8887

           TOTAL OUT =      362720.3750             TOTAL OUT =        4862.4189

            IN - OUT =      -3.1250E-02              IN - OUT =           0.0000

 PERCENT DISCREPANCY =          -0.00     PERCENT DISCREPANCY =           0.00






         TIME SUMMARY AT END OF TIME STEP    7 IN STRESS PERIOD    3
                    SECONDS     MINUTES      HOURS       DAYS        YEARS
                    -----------------------------------------------------------
   TIME STEP LENGTH  86400.      1440.0      24.000      1.0000     2.73785E-03
 STRESS PERIOD TIME 6.04800E+05  10080.      168.00      7.0000     1.91650E-02
         TOTAL TIME 9.33120E+06 1.55520E+05  2592.0      108.00     0.29569    
1
 
 SOLVING FOR HEAD 

 OUTPUT CONTROL FOR STRESS PERIOD    3   TIME STEP    8
    SAVE HEAD FOR ALL LAYERS
    SAVE DRAWDOWN FOR ALL LAYERS
    SAVE BUDGET
    PRINT HEAD FOR ALL LAYERS
    PRINT BUDGET
 UBDSV1 SAVING "         STORAGE" ON UNIT   1 AT TIME STEP  8, STRESS PERIOD   3
 UBDSV2 SAVING "   CONSTANT HEAD" ON UNIT   1 AT TIME STEP  8, STRESS PERIOD   3
 UBDSV1 SAVING "FLOW RIGHT FACE " ON UNIT   1 AT TIME STEP  8, STRESS PERIOD   3
 UBDSV1 SAVING "FLOW FRONT FACE " ON UNIT   1 AT TIME STEP  8, STRESS PERIOD   3
1
              HEAD IN LAYER   1 AT END OF TIME STEP   8 IN STRESS PERIOD    3
  ---------------------------------------------------------------------------

            1           2           3           4           5           6           7           8           9          10
           11          12          13          14          15
 ........................................................................................................................
   1    5.600       5.600       5.600       5.600       5.600       5.600       5.600       5.600       5.600       5.600    
        5.600       5.600       5.600       5.600       5.600    
   2    5.054       5.038       5.016       5.021       5.113       5.239       5.371       5.500       5.583       5.623    
        5.658       5.681       5.687       5.684       5.679    
   3    4.516       4.473       4.400       4.346       4.586       4.864       5.138       5.397       5.564       5.647    
        5.724       5.776       5.780       5.764       5.750    
   4    4.053       3.990       3.839       3.466       4.091       4.522       4.916       5.297       5.542       5.674    
        5.811       5.914       5.889       5.837       5.804    
   5    3.765       3.729       3.671       3.653       3.959       4.337       4.756       5.208       5.507       5.694    
        5.930       6.176       6.023       5.888       5.821    
   6    3.649       3.642       3.648       3.721       3.941       4.260       4.657       5.118       5.435       5.660    
        6.035       6.834       6.134       5.866       5.766    
   7    3.667       3.678       3.714       3.807       3.988       4.252       4.596       5.010       5.293       5.475    
        5.711       5.959       5.807       5.674       5.608    
   8    3.771       3.788       3.833       3.922       4.069       4.280       4.558       4.891       5.107       5.234    
        5.372       5.479       5.459       5.411       5.379    
   9    3.896       3.914       3.955       4.027       4.141       4.300       4.508       4.752       4.900       4.980    
        5.059       5.121       5.135       5.125       5.115    
  10    3.930       3.944       3.975       4.028       4.106       4.216       4.360       4.530       4.625       4.694    
        4.759       4.807       4.829       4.835       4.834    
  11    3.680       3.688       3.707       3.737       3.783       3.848       3.939       4.074       4.229       4.310    
        4.372       4.414       4.437       4.448       4.452    
  12    3.207       3.212       3.224       3.242       3.269       3.309       3.369       3.464       3.688       3.806    
        3.868       3.904       3.925       3.936       3.940    
  13    2.929       2.933       2.941       2.954       2.973       3.000       3.036       3.082       3.140       3.195    
        3.232       3.255       3.268       3.276       3.279    
  14    2.549       2.551       2.555       2.562       2.572       2.585       2.601       2.612       2.597       2.607    
        2.620       2.630       2.637       2.641       2.642    
  15    2.102       2.102       2.103       2.104       2.105       2.106       2.108       2.109       2.108       2.109    
        2.110       2.111       2.112       2.113       2.113    
  16    2.616       2.617       2.620       2.624       2.629       2.634       2.635       2.635       2.636       2.639    
        2.643       2.647       2.650       2.653       2.655    
  17    3.069       3.072       3.077       3.085       3.098       3.108       3.106       3.103       3.103       3.106    
        3.113       3.119       3.126       3.130       3.133    
  18    3.429       3.432       3.440       3.456       3.480       3.510       3.492       3.479       3.475       3.478    
        3.486       3.495       3.503       3.509       3.512    
  19    3.675       3.679       3.690       3.712       3.756       3.855       3.770       3.739       3.731       3.734    
        3.742       3.752       3.762       3.769       3.773    
  20    3.800       3.804       3.815       3.837       3.870       3.906       3.884       3.865       3.859       3.863    
        3.872       3.883       3.893       3.901       3.905    

 HEAD WILL BE SAVED ON UNIT   51 AT END OF TIME STEP    8, STRESS PERIOD    3

 DRAWDOWN WILL BE SAVED ON UNIT   52 AT END OF TIME STEP    8, STRESS PERIOD    3
1
  VOLUMETRIC BUDGET FOR ENTIRE MODEL AT END OF TIME STEP    8, STRESS PERIOD   3
  ------------------------------------------------------------------------------

     CUMULATIVE VOLUMES      L**3       RATES FOR THIS TIME STEP      L**3/T
     ------------------                 ------------------------

           IN:                                      IN:
           ---                                      ---
             STORAGE =       62010.5156               STORAGE =        3658.2783
       CONSTANT HEAD =       68225.6016         CONSTANT HEAD =         192.4749
               WELLS =       25400.0000                 WELLS =         600.0000
       RIVER LEAKAGE =      211534.9844         RIVER LEAKAGE =           0.0000

            TOTAL IN =      367171.1250              TOTAL IN =        4450.7529

          OUT:                                     OUT:
          ----                                     ----
             STORAGE =      246220.5156               STORAGE =         247.4489
       CONSTANT HEAD =         366.1335         CONSTANT HEAD =          67.9755
               WELLS =       56400.0000                 WELLS =         100.0000
       RIVER LEAKAGE =       64184.4688         RIVER LEAKAGE =        4035.3284

           TOTAL OUT =      367171.1250             TOTAL OUT =        4450.7529

            IN - OUT =           0.0000              IN - OUT =           0.0000

 PERCENT DISCREPANCY =           0.00     PERCENT DISCREPANCY =           0.00






         TIME SUMMARY AT END OF TIME STEP    8 IN STRESS PERIOD    3
                    SECONDS     MINUTES      HOURS       DAYS        YEARS
                    -----------------------------------------------------------
   TIME STEP LENGTH  86400.      1440.0      24.000      1.0000     2.73785E-03
 STRESS PERIOD TIME 6.91200E+05  11520.      192.00      8.0000     2.19028E-02
         TOTAL TIME 9.41760E+06 1.56960E+05  2616.0      109.00     0.29843    
1
 
 SOLVING FOR HEAD 

 OUTPUT CONTROL FOR STRESS PERIOD    3   TIME STEP    9
    SAVE HEAD FOR ALL LAYERS
    SAVE DRAWDOWN FOR ALL LAYERS
    SAVE BUDGET
    PRINT HEAD FOR ALL LAYERS
    PRINT BUDGET
 UBDSV1 SAVING "         STORAGE" ON UNIT   1 AT TIME STEP  9, STRESS PERIOD   3
 UBDSV2 SAVING "   CONSTANT HEAD" ON UNIT   1 AT TIME STEP  9, STRESS PERIOD   3
 UBDSV1 SAVING "FLOW RIGHT FACE " ON UNIT   1 AT TIME STEP  9, STRESS PERIOD   3
 UBDSV1 SAVING "FLOW FRONT FACE " ON UNIT   1 AT TIME STEP  9, STRESS PERIOD   3
1
              HEAD IN LAYER   1 AT END OF TIME STEP   9 IN STRESS PERIOD    3
  ---------------------------------------------------------------------------

            1           2           3           4           5           6           7           8           9          10
           11          12          13          14          15
 ........................................................................................................................
   1    5.550       5.550       5.550       5.550       5.550       5.550       5.550       5.550       5.550       5.550    
        5.550       5.550       5.550       5.550       5.550    
   2    5.033       5.018       4.999       5.003       5.093       5.214       5.340       5.462       5.540       5.578    
        5.611       5.633       5.639       5.635       5.630    
   3    4.522       4.483       4.414       4.363       4.599       4.868       5.126       5.370       5.527       5.606    
        5.680       5.730       5.733       5.716       5.702    
   4    4.076       4.017       3.873       3.504       4.125       4.545       4.923       5.280       5.510       5.637    
        5.770       5.869       5.843       5.789       5.755    
   5    3.794       3.761       3.708       3.694       3.997       4.367       4.773       5.196       5.478       5.658    
        5.889       6.132       5.976       5.839       5.771    
   6    3.676       3.670       3.680       3.755       3.975       4.290       4.675       5.108       5.406       5.625    
        5.993       6.789       6.085       5.816       5.715    
   7    3.687       3.698       3.737       3.831       4.012       4.275       4.611       5.000       5.263       5.438    
        5.668       5.911       5.756       5.621       5.554    
   8    3.777       3.795       3.841       3.930       4.078       4.290       4.562       4.878       5.074       5.195    
        5.325       5.427       5.404       5.353       5.321    
   9    3.877       3.895       3.937       4.010       4.124       4.284       4.490       4.724       4.858       4.938    
        5.006       5.063       5.074       5.063       5.052    
  10    3.871       3.886       3.917       3.970       4.050       4.161       4.305       4.472       4.563       4.630    
        4.693       4.739       4.761       4.766       4.766    
  11    3.577       3.586       3.605       3.636       3.683       3.750       3.844       3.983       4.146       4.229    
        4.291       4.334       4.358       4.368       4.372    
  12    3.105       3.110       3.122       3.141       3.170       3.212       3.274       3.371       3.598       3.718    
        3.782       3.820       3.841       3.852       3.857    
  13    2.844       2.848       2.856       2.870       2.890       2.918       2.957       3.005       3.065       3.122    
        3.160       3.184       3.199       3.206       3.210    
  14    2.496       2.498       2.503       2.510       2.521       2.535       2.551       2.565       2.553       2.565    
        2.579       2.589       2.596       2.600       2.602    
  15    2.093       2.093       2.094       2.095       2.096       2.098       2.099       2.100       2.099       2.101    
        2.102       2.103       2.104       2.105       2.105    
  16    2.566       2.568       2.571       2.576       2.582       2.587       2.587       2.587       2.586       2.588    
        2.591       2.594       2.597       2.599       2.600    
  17    2.987       2.990       2.996       3.006       3.019       3.030       3.028       3.023       3.021       3.022    
        3.026       3.031       3.036       3.039       3.041    
  18    3.325       3.329       3.339       3.356       3.382       3.411       3.393       3.377       3.371       3.371    
        3.375       3.382       3.388       3.393       3.396    
  19    3.559       3.564       3.577       3.601       3.647       3.746       3.659       3.626       3.614       3.613    
        3.618       3.625       3.632       3.638       3.641    
  20    3.678       3.684       3.697       3.721       3.755       3.792       3.769       3.747       3.737       3.736    
        3.742       3.749       3.757       3.763       3.767    

 HEAD WILL BE SAVED ON UNIT   51 AT END OF TIME STEP    9, STRESS PERIOD    3

 DRAWDOWN WILL BE SAVED ON UNIT   52 AT END OF TIME STEP    9, STRESS PERIOD    3
1
  VOLUMETRIC BUDGET FOR ENTIRE MODEL AT END OF TIME STEP    9, STRESS PERIOD   3
  ------------------------------------------------------------------------------

     CUMULATIVE VOLUMES      L**3       RATES FOR THIS TIME STEP      L**3/T
     ------------------                 ------------------------

           IN:                                      IN:
           ---                                      ---
             STORAGE =       65334.7227               STORAGE =        3324.2053
       CONSTANT HEAD =       68405.3203         CONSTANT HEAD =         179.7150
               WELLS =       26000.0000                 WELLS =         600.0000
       RIVER LEAKAGE =      211534.9844         RIVER LEAKAGE =           0.0000

            TOTAL IN =      371275.0312              TOTAL IN =        4103.9204

          OUT:                                     OUT:
          ----                                     ----
             STORAGE =      246439.8750               STORAGE =         219.3634
       CONSTANT HEAD =         436.4523         CONSTANT HEAD =          70.3188
               WELLS =       56500.0000                 WELLS =         100.0000
       RIVER LEAKAGE =       67898.7109         RIVER LEAKAGE =        3714.2393

           TOTAL OUT =      371275.0312             TOTAL OUT =        4103.9214

            IN - OUT =           0.0000              IN - OUT =      -9.7656E-04

 PERCENT DISCREPANCY =           0.00     PERCENT DISCREPANCY =          -0.00






         TIME SUMMARY AT END OF TIME STEP    9 IN STRESS PERIOD    3
                    SECONDS     MINUTES      HOURS       DAYS        YEARS
                    -----------------------------------------------------------
   TIME STEP LENGTH  86400.      1440.0      24.000      1.0000     2.73785E-03
 STRESS PERIOD TIME 7.77600E+05  12960.      216.00      9.0000     2.46407E-02
         TOTAL TIME 9.50400E+06 1.58400E+05  2640.0      110.00     0.30116    
1
 
 SOLVING FOR HEAD 

 OUTPUT CONTROL FOR STRESS PERIOD    3   TIME STEP   10
    SAVE HEAD FOR ALL LAYERS
    SAVE DRAWDOWN FOR ALL LAYERS
    SAVE BUDGET
    PRINT HEAD FOR ALL LAYERS
    PRINT BUDGET
 UBDSV1 SAVING "         STORAGE" ON UNIT   1 AT TIME STEP 10, STRESS PERIOD   3
 UBDSV2 SAVING "   CONSTANT HEAD" ON UNIT   1 AT TIME STEP 10, STRESS PERIOD   3
 UBDSV1 SAVING "FLOW RIGHT FACE " ON UNIT   1 AT TIME STEP 10, STRESS PERIOD   3
 UBDSV1 SAVING "FLOW FRONT FACE " ON UNIT   1 AT TIME STEP 10, STRESS PERIOD   3
1
              HEAD IN LAYER   1 AT END OF TIME STEP  10 IN STRESS PERIOD    3
  ---------------------------------------------------------------------------

            1           2           3           4           5           6           7           8           9          10
           11          12          13          14          15
 ........................................................................................................................
   1    5.500       5.500       5.500       5.500       5.500       5.500       5.500       5.500       5.500       5.500    
        5.500       5.500       5.500       5.500       5.500    
   2    5.011       5.000       4.991       4.994       5.075       5.189       5.308       5.423       5.496       5.532    
        5.565       5.586       5.590       5.586       5.581    
   3    4.527       4.491       4.427       4.378       4.609       4.868       5.112       5.341       5.489       5.565    
        5.636       5.684       5.685       5.667       5.653    
   4    4.098       4.043       3.903       3.538       4.154       4.565       4.927       5.260       5.477       5.599    
        5.728       5.825       5.796       5.741       5.707    
   5    3.821       3.791       3.744       3.731       4.032       4.394       4.785       5.182       5.449       5.622    
        5.849       6.088       5.929       5.791       5.722    
   6    3.701       3.698       3.711       3.788       4.006       4.316       4.689       5.097       5.378       5.590    
        5.953       6.744       6.038       5.767       5.665    
   7    3.705       3.718       3.758       3.853       4.034       4.295       4.622       4.992       5.234       5.402    
        5.627       5.865       5.707       5.570       5.502    
   8    3.781       3.799       3.846       3.937       4.085       4.295       4.562       4.862       5.039       5.155    
        5.283       5.378       5.351       5.299       5.266    
   9    3.855       3.874       3.916       3.991       4.106       4.266       4.468       4.692       4.814       4.894    
        4.967       5.010       5.016       5.003       4.994    
  10    3.813       3.828       3.860       3.913       3.995       4.107       4.251       4.414       4.502       4.569    
        4.631       4.674       4.694       4.699       4.698    
  11    3.483       3.492       3.512       3.544       3.593       3.662       3.758       3.901       4.071       4.154    
        4.217       4.259       4.283       4.294       4.298    
  12    3.017       3.023       3.035       3.055       3.085       3.128       3.192       3.292       3.519       3.641    
        3.706       3.745       3.767       3.778       3.782    
  13    2.771       2.776       2.784       2.799       2.820       2.849       2.889       2.939       3.001       3.060    
        3.100       3.124       3.139       3.147       3.151    
  14    2.452       2.454       2.459       2.467       2.478       2.493       2.510       2.525       2.516       2.530    
        2.545       2.556       2.563       2.567       2.569    
  15    2.085       2.085       2.086       2.087       2.089       2.090       2.092       2.093       2.092       2.093    
        2.095       2.096       2.097       2.097       2.098    
  16    2.523       2.524       2.528       2.533       2.540       2.545       2.545       2.544       2.543       2.543    
        2.545       2.548       2.550       2.552       2.553    
  17    2.914       2.917       2.924       2.935       2.949       2.960       2.957       2.950       2.947       2.946    
        2.948       2.952       2.956       2.958       2.960    
  18    3.230       3.235       3.246       3.264       3.291       3.321       3.301       3.284       3.275       3.273    
        3.275       3.279       3.283       3.287       3.289    
  19    3.451       3.457       3.471       3.497       3.544       3.643       3.555       3.520       3.505       3.501    
        3.503       3.507       3.513       3.517       3.519    
  20    3.564       3.571       3.586       3.611       3.646       3.683       3.659       3.635       3.622       3.618    
        3.620       3.625       3.630       3.635       3.637    

 HEAD WILL BE SAVED ON UNIT   51 AT END OF TIME STEP   10, STRESS PERIOD    3

 DRAWDOWN WILL BE SAVED ON UNIT   52 AT END OF TIME STEP   10, STRESS PERIOD    3
1
  VOLUMETRIC BUDGET FOR ENTIRE MODEL AT END OF TIME STEP   10, STRESS PERIOD   3
  ------------------------------------------------------------------------------

     CUMULATIVE VOLUMES      L**3       RATES FOR THIS TIME STEP      L**3/T
     ------------------                 ------------------------

           IN:                                      IN:
           ---                                      ---
             STORAGE =       68374.7891               STORAGE =        3040.0667
       CONSTANT HEAD =       68571.4219         CONSTANT HEAD =         166.1023
               WELLS =       26600.0000                 WELLS =         600.0000
       RIVER LEAKAGE =      211534.9844         RIVER LEAKAGE =           0.0000

            TOTAL IN =      375081.1875              TOTAL IN =        3806.1689

          OUT:                                     OUT:
          ----                                     ----
             STORAGE =      246633.7656               STORAGE =         193.8922
       CONSTANT HEAD =         508.9977         CONSTANT HEAD =          72.5454
               WELLS =       56600.0000                 WELLS =         100.0000
       RIVER LEAKAGE =       71338.4453         RIVER LEAKAGE =        3439.7317

           TOTAL OUT =      375081.1875             TOTAL OUT =        3806.1694

            IN - OUT =           0.0000              IN - OUT =      -4.8828E-04

 PERCENT DISCREPANCY =           0.00     PERCENT DISCREPANCY =          -0.00






         TIME SUMMARY AT END OF TIME STEP   10 IN STRESS PERIOD    3
                    SECONDS     MINUTES      HOURS       DAYS        YEARS
                    -----------------------------------------------------------
   TIME STEP LENGTH  86400.      1440.0      24.000      1.0000     2.73785E-03
 STRESS PERIOD TIME 8.64000E+05  14400.      240.00      10.000     2.73785E-02
         TOTAL TIME 9.59040E+06 1.59840E+05  2664.0      111.00     0.30390    
1
 
 SOLVING FOR HEAD 

 OUTPUT CONTROL FOR STRESS PERIOD    3   TIME STEP   11
    SAVE HEAD FOR ALL LAYERS
    SAVE DRAWDOWN FOR ALL LAYERS
    SAVE BUDGET
    PRINT HEAD FOR ALL LAYERS
    PRINT BUDGET
 UBDSV1 SAVING "         STORAGE" ON UNIT   1 AT TIME STEP 11, STRESS PERIOD   3
 UBDSV2 SAVING "   CONSTANT HEAD" ON UNIT   1 AT TIME STEP 11, STRESS PERIOD   3
 UBDSV1 SAVING "FLOW RIGHT FACE " ON UNIT   1 AT TIME STEP 11, STRESS PERIOD   3
 UBDSV1 SAVING "FLOW FRONT FACE " ON UNIT   1 AT TIME STEP 11, STRESS PERIOD   3
1
              HEAD IN LAYER   1 AT END OF TIME STEP  11 IN STRESS PERIOD    3
  ---------------------------------------------------------------------------

            1           2           3           4           5           6           7           8           9          10
           11          12          13          14          15
 ........................................................................................................................
   1    5.450       5.450       5.450       5.450       5.450       5.450       5.450       5.450       5.450       5.450    
        5.450       5.450       5.450       5.450       5.450    
   2    4.997       4.992       4.979       4.982       5.054       5.163       5.275       5.384       5.453       5.487    
        5.518       5.539       5.543       5.538       5.533    
   3    4.532       4.499       4.438       4.390       4.616       4.867       5.096       5.312       5.452       5.524    
        5.594       5.640       5.640       5.621       5.607    
   4    4.118       4.066       3.931       3.568       4.179       4.580       4.927       5.240       5.444       5.562    
        5.688       5.783       5.753       5.697       5.663    
   5    3.848       3.820       3.776       3.766       4.063       4.418       4.793       5.167       5.419       5.588    
        5.811       6.048       5.888       5.749       5.680    
   6    3.726       3.725       3.740       3.818       4.036       4.340       4.700       5.084       5.350       5.556    
        5.916       6.706       5.998       5.726       5.624    
   7    3.722       3.735       3.777       3.874       4.054       4.311       4.630       4.981       5.204       5.368    
        5.590       5.827       5.669       5.531       5.463    
   8    3.782       3.802       3.850       3.941       4.090       4.298       4.559       4.843       5.005       5.117    
        5.245       5.342       5.315       5.264       5.231    
   9    3.832       3.851       3.894       3.969       4.085       4.245       4.443       4.657       4.770       4.849    
        4.927       4.976       4.983       4.974       4.964    
  10    3.756       3.771       3.803       3.858       3.940       4.053       4.197       4.358       4.444       4.511    
        4.574       4.617       4.637       4.642       4.642    
  11    3.399       3.408       3.429       3.462       3.511       3.582       3.680       3.825       4.001       4.086    
        4.150       4.192       4.216       4.227       4.231    
  12    2.941       2.947       2.960       2.981       3.011       3.056       3.122       3.222       3.450       3.574    
        3.640       3.679       3.701       3.712       3.717    
  13    2.710       2.714       2.723       2.738       2.760       2.791       2.832       2.883       2.946       3.007    
        3.048       3.073       3.088       3.096       3.100    
  14    2.414       2.416       2.422       2.430       2.441       2.457       2.475       2.491       2.485       2.500    
        2.516       2.527       2.534       2.539       2.541    
  15    2.078       2.079       2.079       2.081       2.082       2.084       2.085       2.087       2.086       2.087    
        2.089       2.090       2.091       2.091       2.091    
  16    2.484       2.486       2.490       2.496       2.502       2.507       2.507       2.506       2.504       2.504    
        2.505       2.506       2.508       2.510       2.510    
  17    2.848       2.851       2.859       2.870       2.885       2.896       2.892       2.885       2.880       2.878    
        2.878       2.881       2.883       2.885       2.886    
  18    3.143       3.149       3.160       3.180       3.207       3.237       3.216       3.198       3.187       3.182    
        3.182       3.185       3.188       3.191       3.192    
  19    3.351       3.358       3.373       3.400       3.447       3.546       3.457       3.420       3.403       3.397    
        3.396       3.398       3.402       3.405       3.407    
  20    3.458       3.465       3.481       3.507       3.543       3.580       3.555       3.529       3.513       3.507    
        3.506       3.508       3.512       3.515       3.517    

 HEAD WILL BE SAVED ON UNIT   51 AT END OF TIME STEP   11, STRESS PERIOD    3

 DRAWDOWN WILL BE SAVED ON UNIT   52 AT END OF TIME STEP   11, STRESS PERIOD    3
1
  VOLUMETRIC BUDGET FOR ENTIRE MODEL AT END OF TIME STEP   11, STRESS PERIOD   3
  ------------------------------------------------------------------------------

     CUMULATIVE VOLUMES      L**3       RATES FOR THIS TIME STEP      L**3/T
     ------------------                 ------------------------

           IN:                                      IN:
           ---                                      ---
             STORAGE =       71170.6875               STORAGE =        2795.8948
       CONSTANT HEAD =       68723.9297         CONSTANT HEAD =         152.5051
               WELLS =       27200.0000                 WELLS =         600.0000
       RIVER LEAKAGE =      211534.9844         RIVER LEAKAGE =           0.0000

            TOTAL IN =      378629.6250              TOTAL IN =        3548.3999

          OUT:                                     OUT:
          ----                                     ----
             STORAGE =      246805.2812               STORAGE =         171.5234
       CONSTANT HEAD =         584.9410         CONSTANT HEAD =          75.9432
               WELLS =       56700.0000                 WELLS =         100.0000
       RIVER LEAKAGE =       74539.3750         RIVER LEAKAGE =        3200.9331

           TOTAL OUT =      378629.5938             TOTAL OUT =        3548.3997

            IN - OUT =       3.1250E-02              IN - OUT =       2.4414E-04

 PERCENT DISCREPANCY =           0.00     PERCENT DISCREPANCY =           0.00






         TIME SUMMARY AT END OF TIME STEP   11 IN STRESS PERIOD    3
                    SECONDS     MINUTES      HOURS       DAYS        YEARS
                    -----------------------------------------------------------
   TIME STEP LENGTH  86400.      1440.0      24.000      1.0000     2.73785E-03
 STRESS PERIOD TIME 9.50400E+05  15840.      264.00      11.000     3.01164E-02
         TOTAL TIME 9.67680E+06 1.61280E+05  2688.0      112.00     0.30664    
1
 
 SOLVING FOR HEAD 

 OUTPUT CONTROL FOR STRESS PERIOD    3   TIME STEP   12
    SAVE HEAD FOR ALL LAYERS
    SAVE DRAWDOWN FOR ALL LAYERS
    SAVE BUDGET
    PRINT HEAD FOR ALL LAYERS
    PRINT BUDGET
 UBDSV1 SAVING "         STORAGE" ON UNIT   1 AT TIME STEP 12, STRESS PERIOD   3
 UBDSV2 SAVING "   CONSTANT HEAD" ON UNIT   1 AT TIME STEP 12, STRESS PERIOD   3
 UBDSV1 SAVING "FLOW RIGHT FACE " ON UNIT   1 AT TIME STEP 12, STRESS PERIOD   3
 UBDSV1 SAVING "FLOW FRONT FACE " ON UNIT   1 AT TIME STEP 12, STRESS PERIOD   3
1
              HEAD IN LAYER   1 AT END OF TIME STEP  12 IN STRESS PERIOD    3
  ---------------------------------------------------------------------------

            1           2           3           4           5           6           7           8           9          10
           11          12          13          14          15
 ........................................................................................................................
   1    5.400       5.400       5.400       5.400       5.400       5.400       5.400       5.400       5.400       5.400    
        5.400       5.400       5.400       5.400       5.400    
   2    4.987       4.979       4.965       4.967       5.032       5.136       5.242       5.344       5.409       5.442    
        5.472       5.492       5.495       5.490       5.485    
   3    4.537       4.506       4.447       4.399       4.620       4.862       5.079       5.282       5.414       5.484    
        5.551       5.596       5.596       5.576       5.562    
   4    4.137       4.087       3.956       3.594       4.201       4.593       4.925       5.218       5.412       5.526    
        5.649       5.742       5.711       5.654       5.619    
   5    3.873       3.848       3.807       3.798       4.092       4.438       4.799       5.151       5.391       5.554    
        5.774       6.009       5.847       5.708       5.638    
   6    3.750       3.750       3.768       3.847       4.062       4.360       4.708       5.070       5.323       5.524    
        5.881       6.668       5.959       5.687       5.584    
   7    3.737       3.752       3.795       3.893       4.072       4.325       4.634       4.968       5.179       5.336    
        5.554       5.790       5.631       5.493       5.425    
   8    3.783       3.803       3.851       3.943       4.092       4.298       4.551       4.823       4.981       5.083    
        5.208       5.305       5.279       5.226       5.194    
   9    3.808       3.827       3.871       3.947       4.063       4.222       4.416       4.622       4.729       4.805    
        4.885       4.940       4.948       4.937       4.926    
  10    3.701       3.716       3.750       3.805       3.888       4.002       4.144       4.303       4.389       4.456    
        4.520       4.565       4.585       4.590       4.590    
  11    3.323       3.333       3.353       3.387       3.438       3.510       3.610       3.757       3.938       4.024    
        4.089       4.132       4.156       4.167       4.171    
  12    2.876       2.882       2.895       2.916       2.948       2.994       3.061       3.162       3.389       3.514    
        3.581       3.620       3.643       3.654       3.659    
  13    2.657       2.661       2.671       2.686       2.709       2.740       2.782       2.834       2.899       2.961    
        3.002       3.028       3.044       3.052       3.056    
  14    2.382       2.385       2.390       2.398       2.410       2.426       2.445       2.463       2.459       2.475    
        2.491       2.502       2.510       2.514       2.516    
  15    2.072       2.073       2.074       2.075       2.076       2.078       2.080       2.081       2.081       2.082    
        2.083       2.084       2.085       2.086       2.086    
  16    2.449       2.451       2.455       2.461       2.468       2.473       2.473       2.471       2.468       2.468    
        2.468       2.469       2.470       2.471       2.472    
  17    2.788       2.792       2.800       2.811       2.826       2.837       2.833       2.825       2.818       2.815    
        2.815       2.816       2.817       2.819       2.820    
  18    3.064       3.070       3.082       3.102       3.129       3.159       3.138       3.118       3.105       3.099    
        3.098       3.098       3.100       3.102       3.103    
  19    3.259       3.266       3.282       3.309       3.357       3.456       3.366       3.327       3.309       3.300    
        3.297       3.298       3.300       3.302       3.303    
  20    3.359       3.367       3.383       3.410       3.447       3.483       3.457       3.430       3.412       3.403    
        3.400       3.400       3.402       3.405       3.406    

 HEAD WILL BE SAVED ON UNIT   51 AT END OF TIME STEP   12, STRESS PERIOD    3

 DRAWDOWN WILL BE SAVED ON UNIT   52 AT END OF TIME STEP   12, STRESS PERIOD    3
1
  VOLUMETRIC BUDGET FOR ENTIRE MODEL AT END OF TIME STEP   12, STRESS PERIOD   3
  ------------------------------------------------------------------------------

     CUMULATIVE VOLUMES      L**3       RATES FOR THIS TIME STEP      L**3/T
     ------------------                 ------------------------

           IN:                                      IN:
           ---                                      ---
             STORAGE =       73752.2500               STORAGE =        2581.5637
       CONSTANT HEAD =       68863.9922         CONSTANT HEAD =         140.0615
               WELLS =       27800.0000                 WELLS =         600.0000
       RIVER LEAKAGE =      211534.9844         RIVER LEAKAGE =           0.0000

            TOTAL IN =      381951.2500              TOTAL IN =        3321.6252

          OUT:                                     OUT:
          ----                                     ----
             STORAGE =      246956.0312               STORAGE =         150.7564
       CONSTANT HEAD =         665.2896         CONSTANT HEAD =          80.3485
               WELLS =       56800.0000                 WELLS =         100.0000
       RIVER LEAKAGE =       77529.8984         RIVER LEAKAGE =        2990.5198

           TOTAL OUT =      381951.2188             TOTAL OUT =        3321.6248

            IN - OUT =       3.1250E-02              IN - OUT =       4.8828E-04

 PERCENT DISCREPANCY =           0.00     PERCENT DISCREPANCY =           0.00






         TIME SUMMARY AT END OF TIME STEP   12 IN STRESS PERIOD    3
                    SECONDS     MINUTES      HOURS       DAYS        YEARS
                    -----------------------------------------------------------
   TIME STEP LENGTH  86400.      1440.0      24.000      1.0000     2.73785E-03
 STRESS PERIOD TIME 1.03680E+06  17280.      288.00      12.000     3.28542E-02
         TOTAL TIME 9.76320E+06 1.62720E+05  2712.0      113.00     0.30938    
1
 
 SOLVING FOR HEAD 

 OUTPUT CONTROL FOR STRESS PERIOD    3   TIME STEP   13
    SAVE HEAD FOR ALL LAYERS
    SAVE DRAWDOWN FOR ALL LAYERS
    SAVE BUDGET
    PRINT HEAD FOR ALL LAYERS
    PRINT BUDGET
 UBDSV1 SAVING "         STORAGE" ON UNIT   1 AT TIME STEP 13, STRESS PERIOD   3
 UBDSV2 SAVING "   CONSTANT HEAD" ON UNIT   1 AT TIME STEP 13, STRESS PERIOD   3
 UBDSV1 SAVING "FLOW RIGHT FACE " ON UNIT   1 AT TIME STEP 13, STRESS PERIOD   3
 UBDSV1 SAVING "FLOW FRONT FACE " ON UNIT   1 AT TIME STEP 13, STRESS PERIOD   3
1
              HEAD IN LAYER   1 AT END OF TIME STEP  13 IN STRESS PERIOD    3
  ---------------------------------------------------------------------------

            1           2           3           4           5           6           7           8           9          10
           11          12          13          14          15
 ........................................................................................................................
   1    5.350       5.350       5.350       5.350       5.350       5.350       5.350       5.350       5.350       5.350    
        5.350       5.350       5.350       5.350       5.350    
   2    4.973       4.964       4.949       4.949       5.009       5.107       5.207       5.304       5.365       5.397    
        5.426       5.445       5.448       5.443       5.438    
   3    4.541       4.511       4.454       4.405       4.622       4.856       5.060       5.251       5.376       5.444    
        5.509       5.552       5.551       5.531       5.516    
   4    4.155       4.107       3.978       3.617       4.220       4.603       4.921       5.195       5.379       5.489    
        5.610       5.701       5.668       5.611       5.576    
   5    3.897       3.873       3.835       3.828       4.118       4.456       4.802       5.133       5.361       5.520    
        5.737       5.969       5.806       5.666       5.596    
   6    3.773       3.774       3.794       3.874       4.087       4.378       4.713       5.055       5.295       5.491    
        5.845       6.629       5.919       5.646       5.543    
   7    3.752       3.767       3.811       3.910       4.088       4.337       4.635       4.953       5.151       5.302    
        5.518       5.752       5.591       5.453       5.384    
   8    3.781       3.802       3.851       3.944       4.092       4.295       4.542       4.802       4.952       5.047    
        5.169       5.265       5.238       5.186       5.153    
   9    3.783       3.803       3.847       3.923       4.040       4.197       4.388       4.586       4.688       4.762    
        4.841       4.899       4.908       4.896       4.884    
  10    3.649       3.665       3.698       3.754       3.838       3.952       4.094       4.250       4.337       4.404    
        4.469       4.515       4.536       4.541       4.540    
  11    3.255       3.265       3.286       3.321       3.372       3.445       3.546       3.695       3.880       3.967    
        4.033       4.076       4.101       4.112       4.116    
  12    2.818       2.825       2.838       2.860       2.893       2.939       3.007       3.109       3.335       3.460    
        3.528       3.568       3.591       3.602       3.607    
  13    2.611       2.616       2.625       2.641       2.664       2.696       2.739       2.792       2.858       2.921    
        2.963       2.989       3.005       3.014       3.017    
  14    2.354       2.357       2.362       2.371       2.383       2.400       2.420       2.438       2.436       2.453    
        2.469       2.481       2.489       2.493       2.495    
  15    2.067       2.068       2.068       2.070       2.071       2.073       2.075       2.076       2.076       2.077    
        2.079       2.080       2.080       2.081       2.081    
  16    2.417       2.419       2.424       2.430       2.437       2.442       2.441       2.439       2.436       2.435    
        2.435       2.435       2.436       2.437       2.437    
  17    2.733       2.737       2.745       2.757       2.772       2.783       2.778       2.769       2.762       2.758    
        2.756       2.757       2.757       2.758       2.759    
  18    2.991       2.997       3.009       3.029       3.057       3.087       3.065       3.044       3.030       3.023    
        3.020       3.019       3.020       3.021       3.022    
  19    3.173       3.181       3.197       3.224       3.272       3.372       3.281       3.241       3.221       3.210    
        3.206       3.205       3.205       3.206       3.207    
  20    3.267       3.275       3.292       3.319       3.357       3.393       3.366       3.337       3.318       3.307    
        3.302       3.300       3.301       3.302       3.303    

 HEAD WILL BE SAVED ON UNIT   51 AT END OF TIME STEP   13, STRESS PERIOD    3

 DRAWDOWN WILL BE SAVED ON UNIT   52 AT END OF TIME STEP   13, STRESS PERIOD    3
1
  VOLUMETRIC BUDGET FOR ENTIRE MODEL AT END OF TIME STEP   13, STRESS PERIOD   3
  ------------------------------------------------------------------------------

     CUMULATIVE VOLUMES      L**3       RATES FOR THIS TIME STEP      L**3/T
     ------------------                 ------------------------

           IN:                                      IN:
           ---                                      ---
             STORAGE =       76143.3516               STORAGE =        2391.0994
       CONSTANT HEAD =       68992.5078         CONSTANT HEAD =         128.5184
               WELLS =       28400.0000                 WELLS =         600.0000
       RIVER LEAKAGE =      211534.9844         RIVER LEAKAGE =           0.0000

            TOTAL IN =      385070.8438              TOTAL IN =        3119.6179

          OUT:                                     OUT:
          ----                                     ----
             STORAGE =      247087.7500               STORAGE =         131.7236
       CONSTANT HEAD =         749.8609         CONSTANT HEAD =          84.5713
               WELLS =       56900.0000                 WELLS =         100.0000
       RIVER LEAKAGE =       80333.2188         RIVER LEAKAGE =        2803.3240

           TOTAL OUT =      385070.8438             TOTAL OUT =        3119.6189

            IN - OUT =           0.0000              IN - OUT =      -9.7656E-04

 PERCENT DISCREPANCY =           0.00     PERCENT DISCREPANCY =          -0.00






         TIME SUMMARY AT END OF TIME STEP   13 IN STRESS PERIOD    3
                    SECONDS     MINUTES      HOURS       DAYS        YEARS
                    -----------------------------------------------------------
   TIME STEP LENGTH  86400.      1440.0      24.000      1.0000     2.73785E-03
 STRESS PERIOD TIME 1.12320E+06  18720.      312.00      13.000     3.55921E-02
         TOTAL TIME 9.84960E+06 1.64160E+05  2736.0      114.00     0.31211    
1
 
 SOLVING FOR HEAD 

 OUTPUT CONTROL FOR STRESS PERIOD    3   TIME STEP   14
    SAVE HEAD FOR ALL LAYERS
    SAVE DRAWDOWN FOR ALL LAYERS
    SAVE BUDGET
    PRINT HEAD FOR ALL LAYERS
    PRINT BUDGET
 UBDSV1 SAVING "         STORAGE" ON UNIT   1 AT TIME STEP 14, STRESS PERIOD   3
 UBDSV2 SAVING "   CONSTANT HEAD" ON UNIT   1 AT TIME STEP 14, STRESS PERIOD   3
 UBDSV1 SAVING "FLOW RIGHT FACE " ON UNIT   1 AT TIME STEP 14, STRESS PERIOD   3
 UBDSV1 SAVING "FLOW FRONT FACE " ON UNIT   1 AT TIME STEP 14, STRESS PERIOD   3
1
              HEAD IN LAYER   1 AT END OF TIME STEP  14 IN STRESS PERIOD    3
  ---------------------------------------------------------------------------

            1           2           3           4           5           6           7           8           9          10
           11          12          13          14          15
 ........................................................................................................................
   1    5.300       5.300       5.300       5.300       5.300       5.300       5.300       5.300       5.300       5.300    
        5.300       5.300       5.300       5.300       5.300    
   2    4.956       4.946       4.930       4.930       4.992       5.080       5.173       5.263       5.321       5.352    
        5.380       5.398       5.401       5.395       5.390    
   3    4.544       4.515       4.459       4.410       4.622       4.848       5.040       5.220       5.338       5.402    
        5.466       5.508       5.505       5.485       5.470    
   4    4.171       4.125       3.998       3.638       4.236       4.610       4.914       5.171       5.345       5.451    
        5.569       5.658       5.625       5.567       5.531    
   5    3.920       3.898       3.862       3.854       4.141       4.470       4.803       5.114       5.330       5.485    
        5.698       5.928       5.764       5.623       5.553    
   6    3.794       3.796       3.818       3.898       4.109       4.393       4.715       5.037       5.265       5.457    
        5.807       6.589       5.878       5.604       5.500    
   7    3.764       3.781       3.826       3.925       4.102       4.345       4.633       4.936       5.121       5.267    
        5.479       5.711       5.550       5.410       5.341    
   8    3.778       3.799       3.849       3.942       4.090       4.290       4.529       4.778       4.919       5.010    
        5.129       5.224       5.196       5.143       5.110    
   9    3.758       3.778       3.822       3.900       4.016       4.172       4.358       4.550       4.647       4.719    
        4.798       4.855       4.865       4.852       4.841    
  10    3.600       3.615       3.649       3.706       3.791       3.904       4.045       4.200       4.288       4.355    
        4.420       4.466       4.488       4.492       4.492    
  11    3.193       3.203       3.225       3.260       3.313       3.386       3.488       3.639       3.828       3.915    
        3.981       4.025       4.050       4.061       4.065    
  12    2.768       2.775       2.788       2.811       2.844       2.891       2.959       3.062       3.287       3.412    
        3.480       3.521       3.544       3.556       3.561    
  13    2.571       2.576       2.586       2.602       2.626       2.658       2.702       2.755       2.821       2.885    
        2.928       2.954       2.970       2.979       2.983    
  14    2.330       2.333       2.339       2.347       2.360       2.377       2.397       2.416       2.416       2.433    
        2.450       2.462       2.470       2.474       2.476    
  15    2.062       2.063       2.064       2.065       2.067       2.069       2.070       2.072       2.072       2.073    
        2.074       2.075       2.076       2.076       2.077    
  16    2.388       2.391       2.395       2.401       2.408       2.413       2.413       2.410       2.407       2.405    
        2.404       2.405       2.405       2.405       2.406    
  17    2.683       2.687       2.695       2.707       2.722       2.733       2.728       2.718       2.711       2.706    
        2.703       2.702       2.702       2.703       2.703    
  18    2.924       2.930       2.942       2.963       2.991       3.020       2.997       2.976       2.961       2.952    
        2.948       2.946       2.946       2.946       2.947    
  19    3.094       3.102       3.118       3.146       3.194       3.293       3.202       3.161       3.139       3.127    
        3.121       3.119       3.118       3.118       3.119    
  20    3.182       3.191       3.208       3.235       3.272       3.308       3.280       3.251       3.230       3.217    
        3.210       3.208       3.207       3.207       3.208    

 HEAD WILL BE SAVED ON UNIT   51 AT END OF TIME STEP   14, STRESS PERIOD    3

 DRAWDOWN WILL BE SAVED ON UNIT   52 AT END OF TIME STEP   14, STRESS PERIOD    3
1
  VOLUMETRIC BUDGET FOR ENTIRE MODEL AT END OF TIME STEP   14, STRESS PERIOD   3
  ------------------------------------------------------------------------------

     CUMULATIVE VOLUMES      L**3       RATES FOR THIS TIME STEP      L**3/T
     ------------------                 ------------------------

           IN:                                      IN:
           ---                                      ---
             STORAGE =       78365.5391               STORAGE =        2222.1855
       CONSTANT HEAD =       69109.5078         CONSTANT HEAD =         117.0011
               WELLS =       29000.0000                 WELLS =         600.0000
       RIVER LEAKAGE =      211534.9844         RIVER LEAKAGE =           0.0000

            TOTAL IN =      388010.0312              TOTAL IN =        2939.1865

          OUT:                                     OUT:
          ----                                     ----
             STORAGE =      247202.9375               STORAGE =         115.1945
       CONSTANT HEAD =         838.3168         CONSTANT HEAD =          88.4558
               WELLS =       57000.0000                 WELLS =         100.0000
       RIVER LEAKAGE =       82968.7578         RIVER LEAKAGE =        2635.5361

           TOTAL OUT =      388010.0000             TOTAL OUT =        2939.1865

            IN - OUT =       3.1250E-02              IN - OUT =           0.0000

 PERCENT DISCREPANCY =           0.00     PERCENT DISCREPANCY =           0.00






         TIME SUMMARY AT END OF TIME STEP   14 IN STRESS PERIOD    3
                    SECONDS     MINUTES      HOURS       DAYS        YEARS
                    -----------------------------------------------------------
   TIME STEP LENGTH  86400.      1440.0      24.000      1.0000     2.73785E-03
 STRESS PERIOD TIME 1.20960E+06  20160.      336.00      14.000     3.83299E-02
         TOTAL TIME 9.93600E+06 1.65600E+05  2760.0      115.00     0.31485    
1
 
 SOLVING FOR HEAD 

 OUTPUT CONTROL FOR STRESS PERIOD    3   TIME STEP   15
    SAVE HEAD FOR ALL LAYERS
    SAVE DRAWDOWN FOR ALL LAYERS
    SAVE BUDGET
    PRINT HEAD FOR ALL LAYERS
    PRINT BUDGET
 UBDSV1 SAVING "         STORAGE" ON UNIT   1 AT TIME STEP 15, STRESS PERIOD   3
 UBDSV2 SAVING "   CONSTANT HEAD" ON UNIT   1 AT TIME STEP 15, STRESS PERIOD   3
 UBDSV1 SAVING "FLOW RIGHT FACE " ON UNIT   1 AT TIME STEP 15, STRESS PERIOD   3
 UBDSV1 SAVING "FLOW FRONT FACE " ON UNIT   1 AT TIME STEP 15, STRESS PERIOD   3
1
              HEAD IN LAYER   1 AT END OF TIME STEP  15 IN STRESS PERIOD    3
  ---------------------------------------------------------------------------

            1           2           3           4           5           6           7           8           9          10
           11          12          13          14          15
 ........................................................................................................................
   1    5.250       5.250       5.250       5.250       5.250       5.250       5.250       5.250       5.250       5.250    
        5.250       5.250       5.250       5.250       5.250    
   2    4.937       4.926       4.910       4.910       4.977       5.052       5.138       5.223       5.277       5.306    
        5.333       5.351       5.353       5.347       5.341    
   3    4.546       4.517       4.462       4.412       4.621       4.838       5.019       5.187       5.299       5.361    
        5.422       5.463       5.460       5.439       5.424    
   4    4.187       4.142       4.016       3.655       4.249       4.614       4.905       5.146       5.310       5.413    
        5.529       5.616       5.581       5.522       5.486    
   5    3.941       3.920       3.886       3.878       4.161       4.482       4.801       5.093       5.298       5.449    
        5.660       5.888       5.722       5.579       5.509    
   6    3.814       3.817       3.840       3.920       4.128       4.405       4.714       5.018       5.236       5.423    
        5.770       6.550       5.836       5.561       5.457    
   7    3.776       3.793       3.839       3.938       4.113       4.351       4.629       4.917       5.091       5.235    
        5.443       5.672       5.508       5.368       5.298    
   8    3.774       3.796       3.847       3.940       4.086       4.283       4.515       4.754       4.888       4.981    
        5.092       5.183       5.154       5.100       5.066    
   9    3.733       3.753       3.798       3.876       3.992       4.146       4.328       4.514       4.608       4.679    
        4.756       4.812       4.821       4.808       4.796    
  10    3.553       3.569       3.604       3.661       3.746       3.859       3.999       4.153       4.242       4.309    
        4.373       4.419       4.441       4.445       4.445    
  11    3.138       3.148       3.170       3.206       3.259       3.333       3.435       3.587       3.779       3.867    
        3.933       3.978       4.003       4.014       4.018    
  12    2.724       2.731       2.745       2.767       2.801       2.849       2.917       3.020       3.243       3.368    
        3.437       3.478       3.501       3.513       3.518    
  13    2.536       2.541       2.551       2.568       2.591       2.625       2.669       2.723       2.789       2.854    
        2.896       2.923       2.939       2.948       2.952    
  14    2.309       2.312       2.318       2.327       2.340       2.357       2.377       2.396       2.398       2.416    
        2.433       2.445       2.453       2.458       2.460    
  15    2.058       2.059       2.060       2.061       2.063       2.065       2.066       2.068       2.068       2.069    
        2.070       2.071       2.072       2.072       2.073    
  16    2.362       2.364       2.369       2.375       2.382       2.386       2.386       2.383       2.380       2.377    
        2.377       2.376       2.376       2.377       2.377    
  17    2.636       2.641       2.649       2.661       2.676       2.687       2.681       2.671       2.663       2.657    
        2.654       2.652       2.652       2.652       2.652    
  18    2.862       2.868       2.881       2.901       2.929       2.958       2.935       2.912       2.897       2.887    
        2.881       2.879       2.878       2.878       2.878    
  19    3.021       3.029       3.045       3.073       3.121       3.221       3.128       3.086       3.063       3.050    
        3.043       3.039       3.038       3.037       3.037    
  20    3.104       3.112       3.129       3.157       3.194       3.230       3.201       3.170       3.148       3.134    
        3.126       3.122       3.121       3.120       3.120    

 HEAD WILL BE SAVED ON UNIT   51 AT END OF TIME STEP   15, STRESS PERIOD    3

 DRAWDOWN WILL BE SAVED ON UNIT   52 AT END OF TIME STEP   15, STRESS PERIOD    3
1
  VOLUMETRIC BUDGET FOR ENTIRE MODEL AT END OF TIME STEP   15, STRESS PERIOD   3
  ------------------------------------------------------------------------------

     CUMULATIVE VOLUMES      L**3       RATES FOR THIS TIME STEP      L**3/T
     ------------------                 ------------------------

           IN:                                      IN:
           ---                                      ---
             STORAGE =       80436.5156               STORAGE =        2070.9758
       CONSTANT HEAD =       69215.3750         CONSTANT HEAD =         105.8677
               WELLS =       29600.0000                 WELLS =         600.0000
       RIVER LEAKAGE =      211534.9844         RIVER LEAKAGE =           0.0000

            TOTAL IN =      390786.8750              TOTAL IN =        2776.8435

          OUT:                                     OUT:
          ----                                     ----
             STORAGE =      247303.2812               STORAGE =         100.3364
       CONSTANT HEAD =         930.5762         CONSTANT HEAD =          92.2594
               WELLS =       57100.0000                 WELLS =         100.0000
       RIVER LEAKAGE =       85453.0078         RIVER LEAKAGE =        2484.2488

           TOTAL OUT =      390786.8750             TOTAL OUT =        2776.8447

            IN - OUT =           0.0000              IN - OUT =      -1.2207E-03

 PERCENT DISCREPANCY =           0.00     PERCENT DISCREPANCY =          -0.00






         TIME SUMMARY AT END OF TIME STEP   15 IN STRESS PERIOD    3
                    SECONDS     MINUTES      HOURS       DAYS        YEARS
                    -----------------------------------------------------------
   TIME STEP LENGTH  86400.      1440.0      24.000      1.0000     2.73785E-03
 STRESS PERIOD TIME 1.29600E+06  21600.      360.00      15.000     4.10678E-02
         TOTAL TIME 1.00224E+07 1.67040E+05  2784.0      116.00     0.31759    
1
 
 SOLVING FOR HEAD 

 OUTPUT CONTROL FOR STRESS PERIOD    3   TIME STEP   16
    SAVE HEAD FOR ALL LAYERS
    SAVE DRAWDOWN FOR ALL LAYERS
    SAVE BUDGET
    PRINT HEAD FOR ALL LAYERS
    PRINT BUDGET
 UBDSV1 SAVING "         STORAGE" ON UNIT   1 AT TIME STEP 16, STRESS PERIOD   3
 UBDSV2 SAVING "   CONSTANT HEAD" ON UNIT   1 AT TIME STEP 16, STRESS PERIOD   3
 UBDSV1 SAVING "FLOW RIGHT FACE " ON UNIT   1 AT TIME STEP 16, STRESS PERIOD   3
 UBDSV1 SAVING "FLOW FRONT FACE " ON UNIT   1 AT TIME STEP 16, STRESS PERIOD   3
1
              HEAD IN LAYER   1 AT END OF TIME STEP  16 IN STRESS PERIOD    3
  ---------------------------------------------------------------------------

            1           2           3           4           5           6           7           8           9          10
           11          12          13          14          15
 ........................................................................................................................
   1    5.200       5.200       5.200       5.200       5.200       5.200       5.200       5.200       5.200       5.200    
        5.200       5.200       5.200       5.200       5.200    
   2    4.916       4.905       4.889       4.889       4.956       5.023       5.103       5.182       5.233       5.261    
        5.287       5.304       5.305       5.299       5.293    
   3    4.545       4.518       4.462       4.412       4.618       4.827       4.998       5.155       5.260       5.320    
        5.379       5.419       5.415       5.393       5.377    
   4    4.200       4.156       4.032       3.670       4.260       4.616       4.895       5.120       5.276       5.375    
        5.488       5.574       5.537       5.478       5.441    
   5    3.961       3.941       3.908       3.900       4.179       4.492       4.797       5.072       5.267       5.414    
        5.621       5.847       5.680       5.536       5.465    
   6    3.832       3.837       3.860       3.940       4.145       4.415       4.712       4.999       5.206       5.389    
        5.732       6.510       5.795       5.518       5.414    
   7    3.786       3.804       3.851       3.949       4.122       4.355       4.623       4.897       5.061       5.202    
        5.406       5.632       5.467       5.325       5.255    
   8    3.769       3.791       3.843       3.936       4.081       4.274       4.499       4.728       4.856       4.950    
        5.054       5.143       5.112       5.057       5.023    
   9    3.708       3.728       3.774       3.852       3.967       4.120       4.298       4.479       4.570       4.640    
        4.714       4.769       4.777       4.764       4.752    
  10    3.509       3.525       3.560       3.618       3.703       3.816       3.955       4.108       4.198       4.265    
        4.328       4.375       4.396       4.400       4.399    
  11    3.087       3.098       3.120       3.157       3.210       3.285       3.387       3.540       3.734       3.822    
        3.889       3.933       3.958       3.970       3.974    
  12    2.685       2.691       2.706       2.729       2.763       2.811       2.880       2.982       3.204       3.329    
        3.398       3.439       3.462       3.474       3.479    
  13    2.505       2.510       2.521       2.537       2.561       2.595       2.639       2.693       2.760       2.825    
        2.868       2.895       2.912       2.921       2.924    
  14    2.291       2.293       2.299       2.308       2.322       2.339       2.360       2.379       2.382       2.400    
        2.417       2.430       2.438       2.442       2.445    
  15    2.055       2.055       2.056       2.057       2.059       2.061       2.063       2.064       2.064       2.065    
        2.067       2.068       2.068       2.069       2.069    
  16    2.338       2.340       2.344       2.351       2.357       2.362       2.361       2.358       2.355       2.352    
        2.351       2.350       2.350       2.350       2.350    
  17    2.594       2.598       2.607       2.619       2.633       2.644       2.638       2.628       2.619       2.612    
        2.608       2.606       2.606       2.605       2.605    
  18    2.804       2.810       2.823       2.844       2.872       2.900       2.877       2.854       2.837       2.827    
        2.820       2.817       2.815       2.814       2.814    
  19    2.953       2.961       2.978       3.006       3.054       3.153       3.060       3.017       2.993       2.979    
        2.970       2.966       2.964       2.963       2.962    
  20    3.031       3.039       3.056       3.084       3.121       3.157       3.127       3.096       3.072       3.057    
        3.048       3.043       3.040       3.039       3.039    

 HEAD WILL BE SAVED ON UNIT   51 AT END OF TIME STEP   16, STRESS PERIOD    3

 DRAWDOWN WILL BE SAVED ON UNIT   52 AT END OF TIME STEP   16, STRESS PERIOD    3
1
  VOLUMETRIC BUDGET FOR ENTIRE MODEL AT END OF TIME STEP   16, STRESS PERIOD   3
  ------------------------------------------------------------------------------

     CUMULATIVE VOLUMES      L**3       RATES FOR THIS TIME STEP      L**3/T
     ------------------                 ------------------------

           IN:                                      IN:
           ---                                      ---
             STORAGE =       82370.9062               STORAGE =        1934.3905
       CONSTANT HEAD =       69310.8047         CONSTANT HEAD =          95.4305
               WELLS =       30200.0000                 WELLS =         600.0000
       RIVER LEAKAGE =      211534.9844         RIVER LEAKAGE =           0.0000

            TOTAL IN =      393416.6875              TOTAL IN =        2629.8210

          OUT:                                     OUT:
          ----                                     ----
             STORAGE =      247389.9062               STORAGE =          86.6253
       CONSTANT HEAD =        1026.5911         CONSTANT HEAD =          96.0148
               WELLS =       57200.0000                 WELLS =         100.0000
       RIVER LEAKAGE =       87800.1875         RIVER LEAKAGE =        2347.1804

           TOTAL OUT =      393416.6875             TOTAL OUT =        2629.8206

            IN - OUT =           0.0000              IN - OUT =       4.8828E-04

 PERCENT DISCREPANCY =           0.00     PERCENT DISCREPANCY =           0.00






         TIME SUMMARY AT END OF TIME STEP   16 IN STRESS PERIOD    3
                    SECONDS     MINUTES      HOURS       DAYS        YEARS
                    -----------------------------------------------------------
   TIME STEP LENGTH  86400.      1440.0      24.000      1.0000     2.73785E-03
 STRESS PERIOD TIME 1.38240E+06  23040.      384.00      16.000     4.38056E-02
         TOTAL TIME 1.01088E+07 1.68480E+05  2808.0      117.00     0.32033    
1
 
 SOLVING FOR HEAD 

 OUTPUT CONTROL FOR STRESS PERIOD    3   TIME STEP   17
    SAVE HEAD FOR ALL LAYERS
    SAVE DRAWDOWN FOR ALL LAYERS
    SAVE BUDGET
    PRINT HEAD FOR ALL LAYERS
    PRINT BUDGET
 UBDSV1 SAVING "         STORAGE" ON UNIT   1 AT TIME STEP 17, STRESS PERIOD   3
 UBDSV2 SAVING "   CONSTANT HEAD" ON UNIT   1 AT TIME STEP 17, STRESS PERIOD   3
 UBDSV1 SAVING "FLOW RIGHT FACE " ON UNIT   1 AT TIME STEP 17, STRESS PERIOD   3
 UBDSV1 SAVING "FLOW FRONT FACE " ON UNIT   1 AT TIME STEP 17, STRESS PERIOD   3
1
              HEAD IN LAYER   1 AT END OF TIME STEP  17 IN STRESS PERIOD    3
  ---------------------------------------------------------------------------

            1           2           3           4           5           6           7           8           9          10
           11          12          13          14          15
 ........................................................................................................................
   1    5.150       5.150       5.150       5.150       5.150       5.150       5.150       5.150       5.150       5.150    
        5.150       5.150       5.150       5.150       5.150    
   2    4.894       4.883       4.866       4.866       4.933       4.997       5.071       5.142       5.189       5.216    
        5.241       5.257       5.258       5.251       5.246    
   3    4.544       4.516       4.461       4.410       4.613       4.816       4.987       5.126       5.222       5.279    
        5.336       5.375       5.370       5.348       5.332    
   4    4.213       4.169       4.045       3.683       4.268       4.617       4.885       5.096       5.242       5.338    
        5.448       5.532       5.495       5.435       5.398    
   5    3.979       3.961       3.928       3.919       4.194       4.499       4.792       5.053       5.236       5.379    
        5.583       5.807       5.639       5.494       5.423    
   6    3.850       3.855       3.879       3.958       4.159       4.423       4.709       4.989       5.178       5.356    
        5.696       6.471       5.755       5.478       5.374    
   7    3.795       3.813       3.861       3.959       4.129       4.356       4.615       4.877       5.032       5.169    
        5.370       5.594       5.428       5.286       5.217    
   8    3.764       3.786       3.838       3.931       4.074       4.264       4.482       4.702       4.823       4.916    
        5.017       5.104       5.072       5.018       4.989    
   9    3.683       3.704       3.750       3.828       3.943       4.093       4.268       4.444       4.532       4.602    
        4.674       4.728       4.735       4.722       4.710    
  10    3.468       3.484       3.520       3.578       3.663       3.776       3.913       4.065       4.156       4.223    
        4.286       4.332       4.352       4.357       4.356    
  11    3.042       3.053       3.075       3.112       3.166       3.241       3.344       3.497       3.693       3.781    
        3.847       3.892       3.917       3.928       3.932    
  12    2.650       2.657       2.671       2.694       2.729       2.777       2.846       2.948       3.168       3.293    
        3.361       3.403       3.426       3.439       3.444    
  13    2.478       2.483       2.493       2.510       2.535       2.568       2.613       2.667       2.734       2.799    
        2.842       2.870       2.886       2.895       2.899    
  14    2.274       2.277       2.283       2.292       2.306       2.323       2.344       2.364       2.367       2.386    
        2.404       2.416       2.424       2.429       2.431    
  15    2.051       2.052       2.053       2.054       2.056       2.057       2.059       2.061       2.061       2.062    
        2.063       2.064       2.065       2.065       2.066    
  16    2.315       2.318       2.322       2.328       2.335       2.340       2.339       2.335       2.332       2.329    
        2.327       2.326       2.326       2.326       2.326    
  17    2.555       2.559       2.567       2.580       2.594       2.604       2.598       2.588       2.578       2.571    
        2.567       2.564       2.563       2.562       2.562    
  18    2.751       2.757       2.770       2.791       2.818       2.847       2.823       2.799       2.782       2.771    
        2.764       2.759       2.757       2.756       2.756    
  19    2.891       2.899       2.915       2.943       2.991       3.090       2.996       2.953       2.928       2.913    
        2.903       2.898       2.895       2.894       2.893    
  20    2.963       2.971       2.989       3.016       3.053       3.089       3.059       3.026       3.002       2.986    
        2.976       2.970       2.967       2.965       2.964    

 HEAD WILL BE SAVED ON UNIT   51 AT END OF TIME STEP   17, STRESS PERIOD    3

 DRAWDOWN WILL BE SAVED ON UNIT   52 AT END OF TIME STEP   17, STRESS PERIOD    3
1
  VOLUMETRIC BUDGET FOR ENTIRE MODEL AT END OF TIME STEP   17, STRESS PERIOD   3
  ------------------------------------------------------------------------------

     CUMULATIVE VOLUMES      L**3       RATES FOR THIS TIME STEP      L**3/T
     ------------------                 ------------------------

           IN:                                      IN:
           ---                                      ---
             STORAGE =       84183.5391               STORAGE =        1812.6349
       CONSTANT HEAD =       69395.8281         CONSTANT HEAD =          85.0234
               WELLS =       30800.0000                 WELLS =         600.0000
       RIVER LEAKAGE =      211534.9844         RIVER LEAKAGE =           0.0000

            TOTAL IN =      395914.3750              TOTAL IN =        2497.6582

          OUT:                                     OUT:
          ----                                     ----
             STORAGE =      247464.8906               STORAGE =          74.9870
       CONSTANT HEAD =        1126.7599         CONSTANT HEAD =         100.1688
               WELLS =       57300.0000                 WELLS =         100.0000
       RIVER LEAKAGE =       90022.6875         RIVER LEAKAGE =        2222.5020

           TOTAL OUT =      395914.3438             TOTAL OUT =        2497.6577

            IN - OUT =       3.1250E-02              IN - OUT =       4.8828E-04

 PERCENT DISCREPANCY =           0.00     PERCENT DISCREPANCY =           0.00






         TIME SUMMARY AT END OF TIME STEP   17 IN STRESS PERIOD    3
                    SECONDS     MINUTES      HOURS       DAYS        YEARS
                    -----------------------------------------------------------
   TIME STEP LENGTH  86400.      1440.0      24.000      1.0000     2.73785E-03
 STRESS PERIOD TIME 1.46880E+06  24480.      408.00      17.000     4.65435E-02
         TOTAL TIME 1.01952E+07 1.69920E+05  2832.0      118.00     0.32307    
1
 
 SOLVING FOR HEAD 

 OUTPUT CONTROL FOR STRESS PERIOD    3   TIME STEP   18
    SAVE HEAD FOR ALL LAYERS
    SAVE DRAWDOWN FOR ALL LAYERS
    SAVE BUDGET
    PRINT HEAD FOR ALL LAYERS
    PRINT BUDGET
 UBDSV1 SAVING "         STORAGE" ON UNIT   1 AT TIME STEP 18, STRESS PERIOD   3
 UBDSV2 SAVING "   CONSTANT HEAD" ON UNIT   1 AT TIME STEP 18, STRESS PERIOD   3
 UBDSV1 SAVING "FLOW RIGHT FACE " ON UNIT   1 AT TIME STEP 18, STRESS PERIOD   3
 UBDSV1 SAVING "FLOW FRONT FACE " ON UNIT   1 AT TIME STEP 18, STRESS PERIOD   3
1
              HEAD IN LAYER   1 AT END OF TIME STEP  18 IN STRESS PERIOD    3
  ---------------------------------------------------------------------------

            1           2           3           4           5           6           7           8           9          10
           11          12          13          14          15
 ........................................................................................................................
   1    5.100       5.100       5.100       5.100       5.100       5.100       5.100       5.100       5.100       5.100    
        5.100       5.100       5.100       5.100       5.100    
   2    4.870       4.859       4.843       4.842       4.910       4.982       5.041       5.103       5.146       5.171    
        5.195       5.210       5.211       5.204       5.199    
   3    4.541       4.513       4.459       4.406       4.607       4.806       4.972       5.096       5.184       5.238    
        5.294       5.332       5.326       5.304       5.287    
   4    4.223       4.180       4.057       3.693       4.275       4.616       4.874       5.071       5.209       5.301    
        5.410       5.492       5.454       5.393       5.356    
   5    3.996       3.978       3.946       3.936       4.207       4.504       4.786       5.033       5.206       5.346    
        5.547       5.770       5.600       5.456       5.385    
   6    3.866       3.871       3.896       3.974       4.172       4.428       4.704       4.975       5.149       5.324    
        5.662       6.436       5.719       5.442       5.339    
   7    3.803       3.821       3.869       3.967       4.134       4.356       4.606       4.856       5.003       5.137    
        5.337       5.559       5.393       5.253       5.186    
   8    3.757       3.780       3.832       3.925       4.067       4.252       4.464       4.675       4.791       4.883    
        4.987       5.069       5.038       4.989       4.963    
   9    3.660       3.681       3.727       3.805       3.919       4.067       4.238       4.409       4.496       4.564    
        4.636       4.689       4.696       4.684       4.673    
  10    3.430       3.446       3.482       3.541       3.626       3.737       3.873       4.024       4.117       4.184    
        4.246       4.291       4.312       4.316       4.316    
  11    3.001       3.011       3.034       3.072       3.126       3.201       3.304       3.457       3.654       3.742    
        3.808       3.853       3.878       3.889       3.893    
  12    2.619       2.626       2.640       2.664       2.698       2.747       2.816       2.917       3.136       3.260    
        3.328       3.369       3.393       3.405       3.410    
  13    2.454       2.459       2.469       2.486       2.511       2.545       2.589       2.644       2.711       2.776    
        2.819       2.846       2.863       2.872       2.876    
  14    2.260       2.263       2.268       2.278       2.291       2.309       2.330       2.350       2.354       2.374    
        2.391       2.404       2.412       2.416       2.418    
  15    2.048       2.049       2.049       2.051       2.053       2.054       2.056       2.058       2.058       2.059    
        2.060       2.061       2.062       2.062       2.063    
  16    2.295       2.297       2.302       2.308       2.314       2.319       2.318       2.314       2.310       2.307    
        2.306       2.305       2.304       2.304       2.304    
  17    2.518       2.522       2.531       2.543       2.558       2.568       2.561       2.550       2.540       2.533    
        2.528       2.525       2.523       2.523       2.522    
  18    2.702       2.708       2.721       2.741       2.769       2.797       2.773       2.749       2.731       2.719    
        2.711       2.707       2.704       2.702       2.702    
  19    2.833       2.841       2.857       2.885       2.933       3.031       2.937       2.893       2.868       2.852    
        2.842       2.835       2.832       2.830       2.829    
  20    2.900       2.909       2.926       2.954       2.990       3.025       2.995       2.962       2.937       2.920    
        2.909       2.902       2.898       2.896       2.895    

 HEAD WILL BE SAVED ON UNIT   51 AT END OF TIME STEP   18, STRESS PERIOD    3

 DRAWDOWN WILL BE SAVED ON UNIT   52 AT END OF TIME STEP   18, STRESS PERIOD    3
1
  VOLUMETRIC BUDGET FOR ENTIRE MODEL AT END OF TIME STEP   18, STRESS PERIOD   3
  ------------------------------------------------------------------------------

     CUMULATIVE VOLUMES      L**3       RATES FOR THIS TIME STEP      L**3/T
     ------------------                 ------------------------

           IN:                                      IN:
           ---                                      ---
             STORAGE =       85887.4062               STORAGE =        1703.8656
       CONSTANT HEAD =       69470.2031         CONSTANT HEAD =          74.3738
               WELLS =       31400.0000                 WELLS =         600.0000
       RIVER LEAKAGE =      211534.9844         RIVER LEAKAGE =           0.0000

            TOTAL IN =      398292.5938              TOTAL IN =        2378.2395

          OUT:                                     OUT:
          ----                                     ----
             STORAGE =      247529.3906               STORAGE =          64.4978
       CONSTANT HEAD =        1231.7759         CONSTANT HEAD =         105.0160
               WELLS =       57400.0000                 WELLS =         100.0000
       RIVER LEAKAGE =       92131.4141         RIVER LEAKAGE =        2108.7253

           TOTAL OUT =      398292.5938             TOTAL OUT =        2378.2390

            IN - OUT =           0.0000              IN - OUT =       4.8828E-04

 PERCENT DISCREPANCY =           0.00     PERCENT DISCREPANCY =           0.00






         TIME SUMMARY AT END OF TIME STEP   18 IN STRESS PERIOD    3
                    SECONDS     MINUTES      HOURS       DAYS        YEARS
                    -----------------------------------------------------------
   TIME STEP LENGTH  86400.      1440.0      24.000      1.0000     2.73785E-03
 STRESS PERIOD TIME 1.55520E+06  25920.      432.00      18.000     4.92813E-02
         TOTAL TIME 1.02816E+07 1.71360E+05  2856.0      119.00     0.32580    
1
 
 SOLVING FOR HEAD 

 OUTPUT CONTROL FOR STRESS PERIOD    3   TIME STEP   19
    SAVE HEAD FOR ALL LAYERS
    SAVE DRAWDOWN FOR ALL LAYERS
    SAVE BUDGET
    PRINT HEAD FOR ALL LAYERS
    PRINT BUDGET
 UBDSV1 SAVING "         STORAGE" ON UNIT   1 AT TIME STEP 19, STRESS PERIOD   3
 UBDSV2 SAVING "   CONSTANT HEAD" ON UNIT   1 AT TIME STEP 19, STRESS PERIOD   3
 UBDSV1 SAVING "FLOW RIGHT FACE " ON UNIT   1 AT TIME STEP 19, STRESS PERIOD   3
 UBDSV1 SAVING "FLOW FRONT FACE " ON UNIT   1 AT TIME STEP 19, STRESS PERIOD   3
1
              HEAD IN LAYER   1 AT END OF TIME STEP  19 IN STRESS PERIOD    3
  ---------------------------------------------------------------------------

            1           2           3           4           5           6           7           8           9          10
           11          12          13          14          15
 ........................................................................................................................
   1    5.050       5.050       5.050       5.050       5.050       5.050       5.050       5.050       5.050       5.050    
        5.050       5.050       5.050       5.050       5.050    
   2    4.845       4.834       4.818       4.817       4.885       4.960       5.009       5.064       5.102       5.126    
        5.149       5.164       5.165       5.158       5.152    
   3    4.536       4.509       4.454       4.401       4.599       4.795       4.953       5.065       5.147       5.199    
        5.253       5.289       5.283       5.260       5.244    
   4    4.232       4.190       4.066       3.701       4.279       4.614       4.862       5.047       5.176       5.266    
        5.372       5.453       5.414       5.353       5.316    
   5    4.012       3.994       3.962       3.950       4.218       4.507       4.779       5.013       5.178       5.314    
        5.513       5.734       5.564       5.419       5.347    
   6    3.880       3.886       3.911       3.988       4.182       4.432       4.698       4.958       5.125       5.296    
        5.631       6.403       5.684       5.408       5.304    
   7    3.809       3.828       3.876       3.973       4.138       4.354       4.596       4.837       4.984       5.111    
        5.308       5.528       5.361       5.222       5.154    
   8    3.750       3.773       3.825       3.918       4.058       4.240       4.445       4.649       4.762       4.853    
        4.960       5.038       5.006       4.963       4.934    
   9    3.637       3.658       3.704       3.782       3.896       4.042       4.209       4.376       4.461       4.529    
        4.602       4.653       4.660       4.649       4.639    
  10    3.394       3.410       3.447       3.505       3.590       3.701       3.835       3.985       4.080       4.146    
        4.209       4.253       4.274       4.279       4.278    
  11    2.963       2.974       2.997       3.035       3.089       3.164       3.267       3.420       3.618       3.706    
        3.772       3.816       3.841       3.853       3.857    
  12    2.591       2.598       2.612       2.636       2.671       2.719       2.788       2.889       3.106       3.229    
        3.297       3.338       3.362       3.374       3.379    
  13    2.432       2.437       2.448       2.465       2.490       2.524       2.568       2.622       2.690       2.754    
        2.797       2.825       2.841       2.850       2.854    
  14    2.247       2.250       2.256       2.265       2.278       2.296       2.317       2.338       2.343       2.362    
        2.380       2.392       2.400       2.405       2.407    
  15    2.045       2.046       2.047       2.048       2.050       2.052       2.053       2.055       2.055       2.056    
        2.058       2.059       2.059       2.060       2.060    
  16    2.276       2.278       2.283       2.289       2.295       2.300       2.299       2.295       2.291       2.288    
        2.286       2.284       2.284       2.283       2.283    
  17    2.485       2.489       2.497       2.510       2.524       2.534       2.527       2.516       2.506       2.498    
        2.493       2.489       2.487       2.486       2.486    
  18    2.657       2.663       2.676       2.696       2.724       2.752       2.727       2.702       2.684       2.671    
        2.663       2.658       2.655       2.653       2.652    
  19    2.779       2.787       2.803       2.831       2.879       2.977       2.882       2.838       2.812       2.795    
        2.784       2.778       2.774       2.771       2.770    
  20    2.842       2.851       2.868       2.896       2.932       2.967       2.936       2.902       2.877       2.859    
        2.847       2.840       2.835       2.833       2.832    

 HEAD WILL BE SAVED ON UNIT   51 AT END OF TIME STEP   19, STRESS PERIOD    3

 DRAWDOWN WILL BE SAVED ON UNIT   52 AT END OF TIME STEP   19, STRESS PERIOD    3
1
  VOLUMETRIC BUDGET FOR ENTIRE MODEL AT END OF TIME STEP   19, STRESS PERIOD   3
  ------------------------------------------------------------------------------

     CUMULATIVE VOLUMES      L**3       RATES FOR THIS TIME STEP      L**3/T
     ------------------                 ------------------------

           IN:                                      IN:
           ---                                      ---
             STORAGE =       87492.7031               STORAGE =        1605.3005
       CONSTANT HEAD =       69535.1484         CONSTANT HEAD =          64.9433
               WELLS =       32000.0000                 WELLS =         600.0000
       RIVER LEAKAGE =      211534.9844         RIVER LEAKAGE =           0.0000

            TOTAL IN =      400562.8125              TOTAL IN =        2270.2437

          OUT:                                     OUT:
          ----                                     ----
             STORAGE =      247584.3125               STORAGE =          54.9244
       CONSTANT HEAD =        1342.4744         CONSTANT HEAD =         110.6985
               WELLS =       57500.0000                 WELLS =         100.0000
       RIVER LEAKAGE =       94136.0391         RIVER LEAKAGE =        2004.6212

           TOTAL OUT =      400562.8125             TOTAL OUT =        2270.2441

            IN - OUT =           0.0000              IN - OUT =      -4.8828E-04

 PERCENT DISCREPANCY =           0.00     PERCENT DISCREPANCY =          -0.00






         TIME SUMMARY AT END OF TIME STEP   19 IN STRESS PERIOD    3
                    SECONDS     MINUTES      HOURS       DAYS        YEARS
                    -----------------------------------------------------------
   TIME STEP LENGTH  86400.      1440.0      24.000      1.0000     2.73785E-03
 STRESS PERIOD TIME 1.64160E+06  27360.      456.00      19.000     5.20192E-02
         TOTAL TIME 1.03680E+07 1.72800E+05  2880.0      120.00     0.32854    
1
 
 SOLVING FOR HEAD 

 OUTPUT CONTROL FOR STRESS PERIOD    3   TIME STEP   20
    SAVE HEAD FOR ALL LAYERS
    SAVE DRAWDOWN FOR ALL LAYERS
    SAVE BUDGET
    PRINT HEAD FOR ALL LAYERS
    PRINT BUDGET
 UBDSV1 SAVING "         STORAGE" ON UNIT   1 AT TIME STEP 20, STRESS PERIOD   3
 UBDSV2 SAVING "   CONSTANT HEAD" ON UNIT   1 AT TIME STEP 20, STRESS PERIOD   3
 UBDSV1 SAVING "FLOW RIGHT FACE " ON UNIT   1 AT TIME STEP 20, STRESS PERIOD   3
 UBDSV1 SAVING "FLOW FRONT FACE " ON UNIT   1 AT TIME STEP 20, STRESS PERIOD   3
1
              HEAD IN LAYER   1 AT END OF TIME STEP  20 IN STRESS PERIOD    3
  ---------------------------------------------------------------------------

            1           2           3           4           5           6           7           8           9          10
           11          12          13          14          15
 ........................................................................................................................
   1    5.000       5.000       5.000       5.000       5.000       5.000       5.000       5.000       5.000       5.000    
        5.000       5.000       5.000       5.000       5.000    
   2    4.819       4.808       4.792       4.791       4.859       4.935       4.988       5.027       5.060       5.082    
        5.104       5.119       5.119       5.111       5.105    
   3    4.530       4.503       4.448       4.394       4.590       4.782       4.935       5.035       5.110       5.160    
        5.213       5.248       5.241       5.217       5.201    
   4    4.240       4.198       4.074       3.708       4.282       4.610       4.849       5.023       5.145       5.232    
        5.336       5.415       5.375       5.314       5.276    
   5    4.026       4.008       3.976       3.963       4.226       4.509       4.771       4.996       5.151       5.283    
        5.480       5.699       5.528       5.382       5.311    
   6    3.893       3.899       3.924       4.000       4.191       4.433       4.691       4.941       5.100       5.267    
        5.600       6.370       5.652       5.375       5.270    
   7    3.815       3.834       3.882       3.978       4.140       4.350       4.585       4.818       4.960       5.083    
        5.278       5.498       5.331       5.191       5.122    
   8    3.743       3.766       3.818       3.910       4.048       4.226       4.426       4.624       4.734       4.823    
        4.931       5.008       4.982       4.934       4.903    
   9    3.614       3.636       3.683       3.760       3.873       4.016       4.180       4.344       4.428       4.496    
        4.568       4.619       4.627       4.616       4.605    
  10    3.360       3.377       3.413       3.472       3.557       3.667       3.800       3.949       4.044       4.111    
        4.173       4.218       4.238       4.243       4.243    
  11    2.929       2.940       2.963       3.001       3.056       3.130       3.233       3.386       3.584       3.673    
        3.738       3.782       3.807       3.819       3.823    
  12    2.565       2.573       2.587       2.611       2.646       2.695       2.763       2.864       3.078       3.201    
        3.269       3.310       3.333       3.346       3.351    
  13    2.412       2.418       2.428       2.446       2.470       2.504       2.549       2.603       2.670       2.735    
        2.778       2.805       2.822       2.831       2.835    
  14    2.235       2.238       2.244       2.253       2.267       2.284       2.306       2.326       2.332       2.351    
        2.369       2.382       2.390       2.394       2.397    
  15    2.043       2.043       2.044       2.046       2.047       2.049       2.051       2.052       2.052       2.054    
        2.055       2.056       2.057       2.057       2.057    
  16    2.258       2.260       2.265       2.271       2.278       2.282       2.281       2.277       2.273       2.269    
        2.267       2.266       2.265       2.264       2.264    
  17    2.454       2.458       2.466       2.479       2.493       2.503       2.496       2.484       2.473       2.465    
        2.460       2.456       2.454       2.452       2.452    
  18    2.615       2.621       2.634       2.654       2.681       2.709       2.684       2.659       2.640       2.627    
        2.618       2.613       2.609       2.607       2.606    
  19    2.729       2.737       2.753       2.781       2.829       2.927       2.832       2.787       2.760       2.743    
        2.731       2.724       2.720       2.717       2.716    
  20    2.789       2.797       2.814       2.842       2.878       2.912       2.881       2.847       2.821       2.802    
        2.790       2.782       2.777       2.774       2.773    

 HEAD WILL BE SAVED ON UNIT   51 AT END OF TIME STEP   20, STRESS PERIOD    3

 DRAWDOWN WILL BE SAVED ON UNIT   52 AT END OF TIME STEP   20, STRESS PERIOD    3
1
  VOLUMETRIC BUDGET FOR ENTIRE MODEL AT END OF TIME STEP   20, STRESS PERIOD   3
  ------------------------------------------------------------------------------

     CUMULATIVE VOLUMES      L**3       RATES FOR THIS TIME STEP      L**3/T
     ------------------                 ------------------------

           IN:                                      IN:
           ---                                      ---
             STORAGE =       89009.2422               STORAGE =        1516.5353
       CONSTANT HEAD =       69590.4375         CONSTANT HEAD =          55.2863
               WELLS =       32600.0000                 WELLS =         600.0000
       RIVER LEAKAGE =      211534.9844         RIVER LEAKAGE =           0.0000

            TOTAL IN =      402734.6875              TOTAL IN =        2171.8215

          OUT:                                     OUT:
          ----                                     ----
             STORAGE =      247630.0781               STORAGE =          45.7623
       CONSTANT HEAD =        1459.3737         CONSTANT HEAD =         116.8992
               WELLS =       57600.0000                 WELLS =         100.0000
       RIVER LEAKAGE =       96045.1953         RIVER LEAKAGE =        1909.1586

           TOTAL OUT =      402734.6250             TOTAL OUT =        2171.8201

            IN - OUT =       6.2500E-02              IN - OUT =       1.4648E-03

 PERCENT DISCREPANCY =           0.00     PERCENT DISCREPANCY =           0.00






         TIME SUMMARY AT END OF TIME STEP   20 IN STRESS PERIOD    3
                    SECONDS     MINUTES      HOURS       DAYS        YEARS
                    -----------------------------------------------------------
   TIME STEP LENGTH  86400.      1440.0      24.000      1.0000     2.73785E-03
 STRESS PERIOD TIME 1.72800E+06  28800.      480.00      20.000     5.47570E-02
         TOTAL TIME 1.04544E+07 1.74240E+05  2904.0      121.00     0.33128    
1
 
 SOLVING FOR HEAD 

 OUTPUT CONTROL FOR STRESS PERIOD    3   TIME STEP   21
    SAVE HEAD FOR ALL LAYERS
    SAVE DRAWDOWN FOR ALL LAYERS
    SAVE BUDGET
    PRINT HEAD FOR ALL LAYERS
    PRINT BUDGET
 UBDSV1 SAVING "         STORAGE" ON UNIT   1 AT TIME STEP 21, STRESS PERIOD   3
 UBDSV2 SAVING "   CONSTANT HEAD" ON UNIT   1 AT TIME STEP 21, STRESS PERIOD   3
 UBDSV1 SAVING "FLOW RIGHT FACE " ON UNIT   1 AT TIME STEP 21, STRESS PERIOD   3
 UBDSV1 SAVING "FLOW FRONT FACE " ON UNIT   1 AT TIME STEP 21, STRESS PERIOD   3
1
              HEAD IN LAYER   1 AT END OF TIME STEP  21 IN STRESS PERIOD    3
  ---------------------------------------------------------------------------

            1           2           3           4           5           6           7           8           9          10
           11          12          13          14          15
 ........................................................................................................................
   1    4.950       4.950       4.950       4.950       4.950       4.950       4.950       4.950       4.950       4.950    
        4.950       4.950       4.950       4.950       4.950    
   2    4.792       4.782       4.765       4.764       4.832       4.909       4.967       4.995       5.018       5.038    
        5.059       5.073       5.073       5.065       5.059    
   3    4.523       4.496       4.441       4.385       4.580       4.768       4.916       5.007       5.074       5.121    
        5.172       5.206       5.198       5.175       5.158    
   4    4.246       4.204       4.080       3.712       4.283       4.605       4.836       5.001       5.114       5.198    
        5.299       5.378       5.337       5.274       5.237    
   5    4.038       4.021       3.988       3.974       4.233       4.509       4.763       4.984       5.125       5.253    
        5.447       5.665       5.492       5.346       5.274    
   6    3.905       3.911       3.936       4.010       4.197       4.434       4.683       4.924       5.075       5.239    
        5.569       6.339       5.619       5.341       5.236    
   7    3.819       3.839       3.886       3.981       4.140       4.345       4.572       4.798       4.935       5.055    
        5.250       5.470       5.302       5.160       5.090    
   8    3.736       3.759       3.811       3.902       4.038       4.212       4.407       4.598       4.705       4.793    
        4.902       4.985       4.957       4.905       4.872    
   9    3.593       3.615       3.662       3.739       3.850       3.991       4.152       4.312       4.396       4.464    
        4.536       4.588       4.596       4.583       4.572    
  10    3.329       3.346       3.382       3.441       3.525       3.634       3.766       3.914       4.011       4.078    
        4.140       4.184       4.205       4.210       4.209    
  11    2.898       2.909       2.932       2.970       3.025       3.099       3.201       3.355       3.553       3.641    
        3.707       3.751       3.776       3.787       3.791    
  12    2.543       2.550       2.565       2.589       2.623       2.672       2.740       2.840       3.053       3.175    
        3.242       3.283       3.307       3.319       3.324    
  13    2.395       2.400       2.411       2.428       2.453       2.487       2.531       2.585       2.652       2.717    
        2.759       2.787       2.803       2.812       2.816    
  14    2.224       2.227       2.233       2.243       2.256       2.274       2.295       2.316       2.322       2.342    
        2.359       2.372       2.380       2.385       2.387    
  15    2.040       2.041       2.042       2.043       2.045       2.047       2.048       2.050       2.050       2.051    
        2.053       2.054       2.054       2.055       2.055    
  16    2.242       2.244       2.249       2.255       2.261       2.266       2.264       2.260       2.256       2.252    
        2.250       2.248       2.247       2.247       2.247    
  17    2.425       2.429       2.438       2.450       2.464       2.473       2.466       2.455       2.444       2.435    
        2.429       2.425       2.423       2.421       2.421    
  18    2.576       2.582       2.595       2.615       2.642       2.670       2.645       2.619       2.600       2.586    
        2.577       2.571       2.567       2.565       2.564    
  19    2.683       2.691       2.707       2.735       2.782       2.880       2.785       2.739       2.712       2.694    
        2.682       2.675       2.670       2.667       2.666    
  20    2.739       2.747       2.764       2.792       2.828       2.862       2.830       2.796       2.769       2.750    
        2.737       2.729       2.723       2.720       2.719    

 HEAD WILL BE SAVED ON UNIT   51 AT END OF TIME STEP   21, STRESS PERIOD    3

 DRAWDOWN WILL BE SAVED ON UNIT   52 AT END OF TIME STEP   21, STRESS PERIOD    3
1
  VOLUMETRIC BUDGET FOR ENTIRE MODEL AT END OF TIME STEP   21, STRESS PERIOD   3
  ------------------------------------------------------------------------------

     CUMULATIVE VOLUMES      L**3       RATES FOR THIS TIME STEP      L**3/T
     ------------------                 ------------------------

           IN:                                      IN:
           ---                                      ---
             STORAGE =       90445.5156               STORAGE =        1436.2717
       CONSTANT HEAD =       69637.3828         CONSTANT HEAD =          46.9420
               WELLS =       33200.0000                 WELLS =         600.0000
       RIVER LEAKAGE =      211534.9844         RIVER LEAKAGE =           0.0000

            TOTAL IN =      404817.8750              TOTAL IN =        2083.2139

          OUT:                                     OUT:
          ----                                     ----
             STORAGE =      247667.1094               STORAGE =          37.0327
       CONSTANT HEAD =        1584.0884         CONSTANT HEAD =         124.7147
               WELLS =       57700.0000                 WELLS =         100.0000
       RIVER LEAKAGE =       97866.6641         RIVER LEAKAGE =        1821.4668

           TOTAL OUT =      404817.8438             TOTAL OUT =        2083.2144

            IN - OUT =       3.1250E-02              IN - OUT =      -4.8828E-04

 PERCENT DISCREPANCY =           0.00     PERCENT DISCREPANCY =          -0.00






         TIME SUMMARY AT END OF TIME STEP   21 IN STRESS PERIOD    3
                    SECONDS     MINUTES      HOURS       DAYS        YEARS
                    -----------------------------------------------------------
   TIME STEP LENGTH  86400.      1440.0      24.000      1.0000     2.73785E-03
 STRESS PERIOD TIME 1.81440E+06  30240.      504.00      21.000     5.74949E-02
         TOTAL TIME 1.05408E+07 1.75680E+05  2928.0      122.00     0.33402    
1
 
 SOLVING FOR HEAD 

 OUTPUT CONTROL FOR STRESS PERIOD    3   TIME STEP   22
    SAVE HEAD FOR ALL LAYERS
    SAVE DRAWDOWN FOR ALL LAYERS
    SAVE BUDGET
    PRINT HEAD FOR ALL LAYERS
    PRINT BUDGET
 UBDSV1 SAVING "         STORAGE" ON UNIT   1 AT TIME STEP 22, STRESS PERIOD   3
 UBDSV2 SAVING "   CONSTANT HEAD" ON UNIT   1 AT TIME STEP 22, STRESS PERIOD   3
 UBDSV1 SAVING "FLOW RIGHT FACE " ON UNIT   1 AT TIME STEP 22, STRESS PERIOD   3
 UBDSV1 SAVING "FLOW FRONT FACE " ON UNIT   1 AT TIME STEP 22, STRESS PERIOD   3
1
              HEAD IN LAYER   1 AT END OF TIME STEP  22 IN STRESS PERIOD    3
  ---------------------------------------------------------------------------

            1           2           3           4           5           6           7           8           9          10
           11          12          13          14          15
 ........................................................................................................................
   1    4.900       4.900       4.900       4.900       4.900       4.900       4.900       4.900       4.900       4.900    
        4.900       4.900       4.900       4.900       4.900    
   2    4.765       4.754       4.737       4.736       4.804       4.882       4.942       4.977       4.987       4.999    
        5.016       5.028       5.027       5.019       5.013    
   3    4.515       4.487       4.432       4.376       4.568       4.754       4.899       4.993       5.046       5.088    
        5.135       5.166       5.157       5.133       5.115    
   4    4.251       4.209       4.084       3.715       4.282       4.599       4.825       4.991       5.089       5.167    
        5.265       5.341       5.299       5.236       5.197    
   5    4.049       4.032       3.999       3.983       4.238       4.508       4.754       4.970       5.100       5.224    
        5.416       5.631       5.458       5.310       5.238    
   6    3.915       3.922       3.946       4.019       4.202       4.432       4.674       4.906       5.050       5.211    
        5.540       6.308       5.587       5.308       5.202    
   7    3.823       3.842       3.890       3.983       4.139       4.339       4.559       4.777       4.909       5.027    
        5.221       5.441       5.272       5.129       5.058    
   8    3.728       3.751       3.803       3.893       4.027       4.197       4.387       4.573       4.677       4.764    
        4.874       4.961       4.929       4.874       4.841    
   9    3.573       3.594       3.641       3.718       3.828       3.967       4.125       4.282       4.366       4.433    
        4.506       4.558       4.565       4.552       4.540    
  10    3.299       3.317       3.353       3.412       3.496       3.604       3.734       3.882       3.980       4.046    
        4.109       4.153       4.174       4.178       4.177    
  11    2.869       2.881       2.904       2.942       2.996       3.071       3.172       3.325       3.524       3.612    
        3.677       3.721       3.746       3.757       3.761    
  12    2.522       2.529       2.544       2.568       2.603       2.651       2.719       2.819       3.029       3.150    
        3.218       3.258       3.282       3.294       3.299    
  13    2.379       2.384       2.395       2.412       2.437       2.471       2.515       2.569       2.636       2.700    
        2.743       2.770       2.786       2.795       2.799    
  14    2.215       2.218       2.224       2.234       2.247       2.265       2.286       2.307       2.313       2.333    
        2.350       2.363       2.371       2.376       2.378    
  15    2.038       2.039       2.040       2.041       2.043       2.045       2.046       2.048       2.048       2.049    
        2.051       2.052       2.052       2.053       2.053    
  16    2.227       2.229       2.234       2.240       2.246       2.250       2.249       2.245       2.240       2.237    
        2.234       2.233       2.231       2.231       2.231    
  17    2.398       2.403       2.411       2.423       2.437       2.447       2.439       2.427       2.416       2.407    
        2.401       2.397       2.394       2.393       2.392    
  18    2.540       2.546       2.559       2.579       2.606       2.633       2.608       2.582       2.563       2.549    
        2.539       2.533       2.529       2.526       2.525    
  19    2.640       2.648       2.664       2.692       2.739       2.837       2.741       2.695       2.668       2.649    
        2.637       2.629       2.624       2.621       2.620    
  20    2.693       2.701       2.718       2.745       2.781       2.815       2.783       2.748       2.721       2.702    
        2.688       2.679       2.674       2.670       2.669    

 HEAD WILL BE SAVED ON UNIT   51 AT END OF TIME STEP   22, STRESS PERIOD    3

 DRAWDOWN WILL BE SAVED ON UNIT   52 AT END OF TIME STEP   22, STRESS PERIOD    3
1
  VOLUMETRIC BUDGET FOR ENTIRE MODEL AT END OF TIME STEP   22, STRESS PERIOD   3
  ------------------------------------------------------------------------------

     CUMULATIVE VOLUMES      L**3       RATES FOR THIS TIME STEP      L**3/T
     ------------------                 ------------------------

           IN:                                      IN:
           ---                                      ---
             STORAGE =       91813.2969               STORAGE =        1367.7783
       CONSTANT HEAD =       69676.9609         CONSTANT HEAD =          39.5804
               WELLS =       33800.0000                 WELLS =         600.0000
       RIVER LEAKAGE =      211534.9844         RIVER LEAKAGE =           0.0000

            TOTAL IN =      406825.2500              TOTAL IN =        2007.3588

          OUT:                                     OUT:
          ----                                     ----
             STORAGE =      247696.8750               STORAGE =          29.7715
       CONSTANT HEAD =        1720.8940         CONSTANT HEAD =         136.8057
               WELLS =       57800.0000                 WELLS =         100.0000
       RIVER LEAKAGE =       99607.4453         RIVER LEAKAGE =        1740.7826

           TOTAL OUT =      406825.1875             TOTAL OUT =        2007.3597

            IN - OUT =       6.2500E-02              IN - OUT =      -9.7656E-04

 PERCENT DISCREPANCY =           0.00     PERCENT DISCREPANCY =          -0.00






         TIME SUMMARY AT END OF TIME STEP   22 IN STRESS PERIOD    3
                    SECONDS     MINUTES      HOURS       DAYS        YEARS
                    -----------------------------------------------------------
   TIME STEP LENGTH  86400.      1440.0      24.000      1.0000     2.73785E-03
 STRESS PERIOD TIME 1.90080E+06  31680.      528.00      22.000     6.02327E-02
         TOTAL TIME 1.06272E+07 1.77120E+05  2952.0      123.00     0.33676    
1
 
 SOLVING FOR HEAD 

 OUTPUT CONTROL FOR STRESS PERIOD    3   TIME STEP   23
    SAVE HEAD FOR ALL LAYERS
    SAVE DRAWDOWN FOR ALL LAYERS
    SAVE BUDGET
    PRINT HEAD FOR ALL LAYERS
    PRINT BUDGET
 UBDSV1 SAVING "         STORAGE" ON UNIT   1 AT TIME STEP 23, STRESS PERIOD   3
 UBDSV2 SAVING "   CONSTANT HEAD" ON UNIT   1 AT TIME STEP 23, STRESS PERIOD   3
 UBDSV1 SAVING "FLOW RIGHT FACE " ON UNIT   1 AT TIME STEP 23, STRESS PERIOD   3
 UBDSV1 SAVING "FLOW FRONT FACE " ON UNIT   1 AT TIME STEP 23, STRESS PERIOD   3
1
              HEAD IN LAYER   1 AT END OF TIME STEP  23 IN STRESS PERIOD    3
  ---------------------------------------------------------------------------

            1           2           3           4           5           6           7           8           9          10
           11          12          13          14          15
 ........................................................................................................................
   1    4.850       4.850       4.850       4.850       4.850       4.850       4.850       4.850       4.850       4.850    
        4.850       4.850       4.850       4.850       4.850    
   2    4.737       4.726       4.709       4.708       4.775       4.853       4.915       4.954       4.961       4.974    
        4.986       4.994       4.992       4.987       4.983    
   3    4.505       4.478       4.422       4.364       4.555       4.738       4.881       4.980       5.023       5.062    
        5.105       5.134       5.124       5.100       5.083    
   4    4.254       4.212       4.087       3.716       4.280       4.592       4.813       4.979       5.067       5.141    
        5.237       5.310       5.267       5.203       5.165    
   5    4.059       4.041       4.008       3.990       4.241       4.505       4.745       4.955       5.077       5.198    
        5.388       5.602       5.427       5.279       5.206    
   6    3.924       3.931       3.954       4.025       4.205       4.430       4.664       4.888       5.026       5.185    
        5.512       6.279       5.557       5.277       5.171    
   7    3.826       3.845       3.892       3.984       4.137       4.332       4.546       4.756       4.884       5.000    
        5.193       5.413       5.243       5.099       5.027    
   8    3.720       3.743       3.795       3.884       4.016       4.182       4.367       4.548       4.650       4.736    
        4.846       4.933       4.900       4.844       4.810    
   9    3.553       3.575       3.622       3.698       3.807       3.943       4.098       4.253       4.336       4.403    
        4.476       4.529       4.536       4.521       4.509    
  10    3.272       3.289       3.326       3.385       3.468       3.575       3.704       3.851       3.950       4.016    
        4.079       4.123       4.143       4.148       4.147    
  11    2.843       2.855       2.878       2.916       2.970       3.044       3.145       3.298       3.496       3.584    
        3.649       3.693       3.718       3.729       3.733    
  12    2.504       2.511       2.526       2.550       2.584       2.632       2.700       2.799       3.008       3.128    
        3.195       3.235       3.259       3.271       3.276    
  13    2.365       2.370       2.381       2.398       2.423       2.457       2.501       2.554       2.620       2.684    
        2.727       2.754       2.771       2.780       2.784    
  14    2.206       2.209       2.215       2.225       2.238       2.256       2.277       2.298       2.305       2.325    
        2.342       2.355       2.363       2.367       2.370    
  15    2.036       2.037       2.038       2.039       2.041       2.043       2.044       2.046       2.046       2.047    
        2.049       2.050       2.050       2.051       2.051    
  16    2.213       2.215       2.220       2.226       2.232       2.236       2.235       2.231       2.226       2.222    
        2.220       2.218       2.217       2.216       2.216    
  17    2.374       2.378       2.386       2.398       2.412       2.422       2.414       2.402       2.391       2.382    
        2.375       2.371       2.368       2.366       2.366    
  18    2.506       2.513       2.525       2.545       2.572       2.599       2.574       2.548       2.528       2.514    
        2.504       2.497       2.493       2.490       2.489    
  19    2.601       2.608       2.625       2.652       2.700       2.797       2.701       2.655       2.627       2.608    
        2.595       2.587       2.582       2.578       2.577    
  20    2.650       2.658       2.675       2.702       2.738       2.772       2.740       2.704       2.677       2.657    
        2.643       2.634       2.628       2.624       2.623    

 HEAD WILL BE SAVED ON UNIT   51 AT END OF TIME STEP   23, STRESS PERIOD    3

 DRAWDOWN WILL BE SAVED ON UNIT   52 AT END OF TIME STEP   23, STRESS PERIOD    3
1
  VOLUMETRIC BUDGET FOR ENTIRE MODEL AT END OF TIME STEP   23, STRESS PERIOD   3
  ------------------------------------------------------------------------------

     CUMULATIVE VOLUMES      L**3       RATES FOR THIS TIME STEP      L**3/T
     ------------------                 ------------------------

           IN:                                      IN:
           ---                                      ---
             STORAGE =       93132.4062               STORAGE =        1319.1067
       CONSTANT HEAD =       69709.6250         CONSTANT HEAD =          32.6667
               WELLS =       34400.0000                 WELLS =         600.0000
       RIVER LEAKAGE =      211534.9844         RIVER LEAKAGE =           0.0000

            TOTAL IN =      408777.0000              TOTAL IN =        1951.7734

          OUT:                                     OUT:
          ----                                     ----
             STORAGE =      247720.0781               STORAGE =          23.2020
       CONSTANT HEAD =        1883.0254         CONSTANT HEAD =         162.1313
               WELLS =       57900.0000                 WELLS =         100.0000
       RIVER LEAKAGE =      101273.8828         RIVER LEAKAGE =        1666.4413

           TOTAL OUT =      408777.0000             TOTAL OUT =        1951.7747

            IN - OUT =           0.0000              IN - OUT =      -1.2207E-03

 PERCENT DISCREPANCY =           0.00     PERCENT DISCREPANCY =          -0.00






         TIME SUMMARY AT END OF TIME STEP   23 IN STRESS PERIOD    3
                    SECONDS     MINUTES      HOURS       DAYS        YEARS
                    -----------------------------------------------------------
   TIME STEP LENGTH  86400.      1440.0      24.000      1.0000     2.73785E-03
 STRESS PERIOD TIME 1.98720E+06  33120.      552.00      23.000     6.29706E-02
         TOTAL TIME 1.07136E+07 1.78560E+05  2976.0      124.00     0.33949    
1
 
 SOLVING FOR HEAD 

 OUTPUT CONTROL FOR STRESS PERIOD    3   TIME STEP   24
    SAVE HEAD FOR ALL LAYERS
    SAVE DRAWDOWN FOR ALL LAYERS
    SAVE BUDGET
    PRINT HEAD FOR ALL LAYERS
    PRINT BUDGET
 UBDSV1 SAVING "         STORAGE" ON UNIT   1 AT TIME STEP 24, STRESS PERIOD   3
 UBDSV2 SAVING "   CONSTANT HEAD" ON UNIT   1 AT TIME STEP 24, STRESS PERIOD   3
 UBDSV1 SAVING "FLOW RIGHT FACE " ON UNIT   1 AT TIME STEP 24, STRESS PERIOD   3
 UBDSV1 SAVING "FLOW FRONT FACE " ON UNIT   1 AT TIME STEP 24, STRESS PERIOD   3
1
              HEAD IN LAYER   1 AT END OF TIME STEP  24 IN STRESS PERIOD    3
  ---------------------------------------------------------------------------

            1           2           3           4           5           6           7           8           9          10
           11          12          13          14          15
 ........................................................................................................................
   1    4.800       4.800       4.800       4.800       4.800       4.800       4.800       4.800       4.800       4.800    
        4.800       4.800       4.800       4.800       4.800    
   2    4.708       4.697       4.680       4.678       4.745       4.822       4.886       4.926       4.929       4.942    
        4.958       4.968       4.966       4.958       4.953    
   3    4.494       4.466       4.410       4.352       4.540       4.722       4.863       4.962       4.998       5.034    
        5.078       5.107       5.096       5.072       5.054    
   4    4.256       4.213       4.088       3.715       4.276       4.584       4.801       4.964       5.044       5.117    
        5.211       5.284       5.239       5.175       5.136    
   5    4.067       4.049       4.015       3.995       4.243       4.502       4.735       4.939       5.056       5.175    
        5.363       5.575       5.399       5.251       5.177    
   6    3.932       3.938       3.961       4.031       4.207       4.426       4.653       4.871       5.005       5.163    
        5.487       6.253       5.529       5.249       5.142    
   7    3.827       3.846       3.893       3.983       4.134       4.324       4.532       4.736       4.861       4.983    
        5.170       5.386       5.215       5.070       4.999    
   8    3.712       3.735       3.786       3.874       4.004       4.167       4.347       4.524       4.624       4.710    
        4.819       4.905       4.872       4.815       4.780    
   9    3.534       3.556       3.603       3.678       3.786       3.920       4.072       4.225       4.308       4.375    
        4.448       4.500       4.506       4.492       4.479    
  10    3.247       3.264       3.301       3.359       3.441       3.547       3.675       3.821       3.921       3.988    
        4.050       4.095       4.115       4.118       4.117    
  11    2.819       2.831       2.854       2.892       2.946       3.020       3.120       3.272       3.471       3.558    
        3.623       3.667       3.691       3.703       3.706    
  12    2.487       2.494       2.509       2.533       2.567       2.615       2.682       2.781       2.987       3.106    
        3.173       3.214       3.237       3.249       3.254    
  13    2.352       2.357       2.368       2.385       2.410       2.443       2.487       2.541       2.606       2.670    
        2.712       2.739       2.756       2.765       2.769    
  14    2.199       2.202       2.208       2.217       2.231       2.248       2.269       2.290       2.297       2.317    
        2.335       2.347       2.355       2.360       2.362    
  15    2.035       2.035       2.036       2.037       2.039       2.041       2.042       2.044       2.044       2.046    
        2.047       2.048       2.048       2.049       2.049    
  16    2.200       2.203       2.207       2.213       2.219       2.223       2.222       2.218       2.213       2.209    
        2.206       2.204       2.203       2.202       2.202    
  17    2.351       2.355       2.364       2.376       2.389       2.399       2.391       2.379       2.367       2.358    
        2.351       2.347       2.344       2.342       2.341    
  18    2.475       2.482       2.494       2.514       2.541       2.568       2.542       2.516       2.496       2.481    
        2.471       2.464       2.460       2.457       2.456    
  19    2.564       2.572       2.588       2.616       2.663       2.760       2.664       2.617       2.589       2.570    
        2.557       2.548       2.542       2.539       2.537    
  20    2.610       2.618       2.636       2.662       2.698       2.732       2.699       2.663       2.635       2.615    
        2.601       2.592       2.585       2.582       2.580    

 HEAD WILL BE SAVED ON UNIT   51 AT END OF TIME STEP   24, STRESS PERIOD    3

 DRAWDOWN WILL BE SAVED ON UNIT   52 AT END OF TIME STEP   24, STRESS PERIOD    3
1
  VOLUMETRIC BUDGET FOR ENTIRE MODEL AT END OF TIME STEP   24, STRESS PERIOD   3
  ------------------------------------------------------------------------------

     CUMULATIVE VOLUMES      L**3       RATES FOR THIS TIME STEP      L**3/T
     ------------------                 ------------------------

           IN:                                      IN:
           ---                                      ---
             STORAGE =       94410.1562               STORAGE =        1277.7472
       CONSTANT HEAD =       69736.6094         CONSTANT HEAD =          26.9860
               WELLS =       35000.0000                 WELLS =         600.0000
       RIVER LEAKAGE =      211534.9844         RIVER LEAKAGE =           0.0000

            TOTAL IN =      410681.7500              TOTAL IN =        1904.7333

          OUT:                                     OUT:
          ----                                     ----
             STORAGE =      247737.2500               STORAGE =          17.1642
       CONSTANT HEAD =        2072.7434         CONSTANT HEAD =         189.7179
               WELLS =       58000.0000                 WELLS =         100.0000
       RIVER LEAKAGE =      102871.7344         RIVER LEAKAGE =        1597.8503

           TOTAL OUT =      410681.7500             TOTAL OUT =        1904.7324

            IN - OUT =           0.0000              IN - OUT =       8.5449E-04

 PERCENT DISCREPANCY =           0.00     PERCENT DISCREPANCY =           0.00






         TIME SUMMARY AT END OF TIME STEP   24 IN STRESS PERIOD    3
                    SECONDS     MINUTES      HOURS       DAYS        YEARS
                    -----------------------------------------------------------
   TIME STEP LENGTH  86400.      1440.0      24.000      1.0000     2.73785E-03
 STRESS PERIOD TIME 2.07360E+06  34560.      576.00      24.000     6.57084E-02
         TOTAL TIME 1.08000E+07 1.80000E+05  3000.0      125.00     0.34223    
1
 
 SOLVING FOR HEAD 

 OUTPUT CONTROL FOR STRESS PERIOD    3   TIME STEP   25
    SAVE HEAD FOR ALL LAYERS
    SAVE DRAWDOWN FOR ALL LAYERS
    SAVE BUDGET
    PRINT HEAD FOR ALL LAYERS
    PRINT BUDGET
 UBDSV1 SAVING "         STORAGE" ON UNIT   1 AT TIME STEP 25, STRESS PERIOD   3
 UBDSV2 SAVING "   CONSTANT HEAD" ON UNIT   1 AT TIME STEP 25, STRESS PERIOD   3
 UBDSV1 SAVING "FLOW RIGHT FACE " ON UNIT   1 AT TIME STEP 25, STRESS PERIOD   3
 UBDSV1 SAVING "FLOW FRONT FACE " ON UNIT   1 AT TIME STEP 25, STRESS PERIOD   3
1
              HEAD IN LAYER   1 AT END OF TIME STEP  25 IN STRESS PERIOD    3
  ---------------------------------------------------------------------------

            1           2           3           4           5           6           7           8           9          10
           11          12          13          14          15
 ........................................................................................................................
   1    4.750       4.750       4.750       4.750       4.750       4.750       4.750       4.750       4.750       4.750    
        4.750       4.750       4.750       4.750       4.750    
   2    4.678       4.667       4.650       4.648       4.714       4.791       4.855       4.896       4.896       4.908    
        4.923       4.933       4.931       4.923       4.917    
   3    4.482       4.454       4.397       4.338       4.525       4.704       4.844       4.943       4.979       5.008    
        5.048       5.076       5.065       5.040       5.022    
   4    4.256       4.213       4.087       3.713       4.271       4.576       4.788       4.948       5.024       5.093    
        5.184       5.255       5.210       5.146       5.107    
   5    4.073       4.056       4.021       3.999       4.243       4.497       4.725       4.923       5.037       5.153    
        5.338       5.549       5.372       5.224       5.151    
   6    3.939       3.945       3.967       4.034       4.207       4.421       4.642       4.854       4.990       5.142    
        5.464       6.227       5.504       5.224       5.119    
   7    3.828       3.847       3.893       3.982       4.129       4.315       4.517       4.716       4.840       4.962    
        5.145       5.361       5.189       5.046       4.982    
   8    3.703       3.726       3.777       3.864       3.992       4.151       4.327       4.500       4.599       4.685    
        4.793       4.878       4.844       4.788       4.754    
   9    3.516       3.538       3.584       3.660       3.765       3.898       4.047       4.198       4.281       4.348    
        4.420       4.472       4.478       4.463       4.451    
  10    3.223       3.240       3.277       3.335       3.416       3.521       3.647       3.793       3.894       3.961    
        4.023       4.067       4.087       4.091       4.089    
  11    2.797       2.809       2.832       2.870       2.924       2.997       3.096       3.248       3.446       3.534    
        3.598       3.642       3.666       3.677       3.681    
  12    2.471       2.478       2.493       2.517       2.551       2.599       2.666       2.764       2.968       3.087    
        3.153       3.193       3.217       3.229       3.234    
  13    2.340       2.345       2.356       2.373       2.398       2.431       2.475       2.528       2.593       2.656    
        2.699       2.726       2.742       2.751       2.755    
  14    2.191       2.194       2.201       2.210       2.223       2.241       2.262       2.283       2.290       2.310    
        2.327       2.340       2.348       2.352       2.355    
  15    2.033       2.033       2.034       2.036       2.037       2.039       2.041       2.042       2.043       2.044    
        2.045       2.046       2.047       2.047       2.047    
  16    2.188       2.191       2.195       2.201       2.207       2.211       2.210       2.205       2.200       2.197    
        2.194       2.192       2.190       2.190       2.189    
  17    2.330       2.334       2.342       2.354       2.368       2.377       2.370       2.357       2.345       2.336    
        2.329       2.325       2.321       2.319       2.319    
  18    2.447       2.453       2.466       2.485       2.512       2.539       2.513       2.487       2.466       2.452    
        2.441       2.434       2.429       2.427       2.425    
  19    2.530       2.538       2.554       2.581       2.628       2.726       2.629       2.582       2.553       2.534    
        2.521       2.512       2.506       2.503       2.501    
  20    2.573       2.582       2.599       2.626       2.661       2.695       2.662       2.626       2.597       2.577    
        2.562       2.553       2.546       2.542       2.540    

 HEAD WILL BE SAVED ON UNIT   51 AT END OF TIME STEP   25, STRESS PERIOD    3

 DRAWDOWN WILL BE SAVED ON UNIT   52 AT END OF TIME STEP   25, STRESS PERIOD    3
1
  VOLUMETRIC BUDGET FOR ENTIRE MODEL AT END OF TIME STEP   25, STRESS PERIOD   3
  ------------------------------------------------------------------------------

     CUMULATIVE VOLUMES      L**3       RATES FOR THIS TIME STEP      L**3/T
     ------------------                 ------------------------

           IN:                                      IN:
           ---                                      ---
             STORAGE =       95645.2734               STORAGE =        1235.1200
       CONSTANT HEAD =       69758.1172         CONSTANT HEAD =          21.5095
               WELLS =       35600.0000                 WELLS =         600.0000
       RIVER LEAKAGE =      211534.9844         RIVER LEAKAGE =           0.0000

            TOTAL IN =      412538.3750              TOTAL IN =        1856.6295

          OUT:                                     OUT:
          ----                                     ----
             STORAGE =      247749.2031               STORAGE =          11.9524
       CONSTANT HEAD =        2282.9331         CONSTANT HEAD =         210.1897
               WELLS =       58100.0000                 WELLS =         100.0000
       RIVER LEAKAGE =      104406.2266         RIVER LEAKAGE =        1534.4888

           TOTAL OUT =      412538.3438             TOTAL OUT =        1856.6309

            IN - OUT =       3.1250E-02              IN - OUT =      -1.3428E-03

 PERCENT DISCREPANCY =           0.00     PERCENT DISCREPANCY =          -0.00






         TIME SUMMARY AT END OF TIME STEP   25 IN STRESS PERIOD    3
                    SECONDS     MINUTES      HOURS       DAYS        YEARS
                    -----------------------------------------------------------
   TIME STEP LENGTH  86400.      1440.0      24.000      1.0000     2.73785E-03
 STRESS PERIOD TIME 2.16000E+06  36000.      600.00      25.000     6.84463E-02
         TOTAL TIME 1.08864E+07 1.81440E+05  3024.0      126.00     0.34497    
1
 
 SOLVING FOR HEAD 

 OUTPUT CONTROL FOR STRESS PERIOD    3   TIME STEP   26
    SAVE HEAD FOR ALL LAYERS
    SAVE DRAWDOWN FOR ALL LAYERS
    SAVE BUDGET
    PRINT HEAD FOR ALL LAYERS
    PRINT BUDGET
 UBDSV1 SAVING "         STORAGE" ON UNIT   1 AT TIME STEP 26, STRESS PERIOD   3
 UBDSV2 SAVING "   CONSTANT HEAD" ON UNIT   1 AT TIME STEP 26, STRESS PERIOD   3
 UBDSV1 SAVING "FLOW RIGHT FACE " ON UNIT   1 AT TIME STEP 26, STRESS PERIOD   3
 UBDSV1 SAVING "FLOW FRONT FACE " ON UNIT   1 AT TIME STEP 26, STRESS PERIOD   3
1
              HEAD IN LAYER   1 AT END OF TIME STEP  26 IN STRESS PERIOD    3
  ---------------------------------------------------------------------------

            1           2           3           4           5           6           7           8           9          10
           11          12          13          14          15
 ........................................................................................................................
   1    4.700       4.700       4.700       4.700       4.700       4.700       4.700       4.700       4.700       4.700    
        4.700       4.700       4.700       4.700       4.700    
   2    4.648       4.637       4.619       4.617       4.682       4.759       4.823       4.863       4.861       4.872    
        4.886       4.895       4.892       4.884       4.878    
   3    4.468       4.441       4.383       4.323       4.508       4.686       4.824       4.922       4.956       4.985    
        5.018       5.043       5.031       5.007       4.992    
   4    4.255       4.212       4.085       3.709       4.265       4.566       4.774       4.930       5.003       5.069    
        5.157       5.226       5.180       5.116       5.078    
   5    4.079       4.061       4.025       4.001       4.242       4.491       4.714       4.907       5.017       5.131    
        5.313       5.522       5.344       5.196       5.123    
   6    3.944       3.950       3.971       4.037       4.206       4.415       4.631       4.837       4.972       5.121    
        5.440       6.202       5.477       5.198       5.094    
   7    3.829       3.847       3.893       3.980       4.124       4.306       4.502       4.697       4.819       4.939    
        5.121       5.335       5.163       5.021       4.959    
   8    3.695       3.718       3.768       3.854       3.980       4.136       4.307       4.477       4.575       4.661    
        4.767       4.852       4.817       4.761       4.728    
   9    3.499       3.521       3.567       3.641       3.746       3.876       4.023       4.172       4.255       4.322    
        4.394       4.446       4.451       4.436       4.423    
  10    3.200       3.218       3.254       3.312       3.393       3.496       3.622       3.767       3.869       3.935    
        3.997       4.041       4.061       4.064       4.063    
  11    2.777       2.788       2.812       2.849       2.903       2.975       3.075       3.226       3.423       3.510    
        3.575       3.618       3.643       3.653       3.657    
  12    2.457       2.464       2.479       2.503       2.537       2.584       2.651       2.748       2.950       3.068    
        3.134       3.174       3.197       3.209       3.214    
  13    2.329       2.334       2.345       2.362       2.387       2.420       2.463       2.516       2.581       2.644    
        2.686       2.713       2.729       2.738       2.742    
  14    2.185       2.188       2.194       2.203       2.217       2.234       2.255       2.276       2.284       2.303    
        2.321       2.333       2.341       2.346       2.348    
  15    2.031       2.032       2.033       2.034       2.036       2.038       2.039       2.041       2.041       2.042    
        2.044       2.044       2.045       2.045       2.045    
  16    2.178       2.180       2.184       2.190       2.196       2.200       2.199       2.194       2.189       2.185    
        2.182       2.180       2.179       2.178       2.178    
  17    2.310       2.315       2.323       2.335       2.348       2.357       2.350       2.337       2.325       2.316    
        2.309       2.304       2.301       2.299       2.298    
  18    2.420       2.426       2.439       2.459       2.485       2.512       2.486       2.459       2.439       2.424    
        2.413       2.406       2.401       2.398       2.397    
  19    2.499       2.506       2.522       2.550       2.597       2.694       2.597       2.550       2.521       2.501    
        2.488       2.479       2.473       2.469       2.467    
  20    2.539       2.548       2.565       2.591       2.627       2.660       2.627       2.591       2.562       2.541    
        2.527       2.516       2.510       2.506       2.504    

 HEAD WILL BE SAVED ON UNIT   51 AT END OF TIME STEP   26, STRESS PERIOD    3

 DRAWDOWN WILL BE SAVED ON UNIT   52 AT END OF TIME STEP   26, STRESS PERIOD    3
1
  VOLUMETRIC BUDGET FOR ENTIRE MODEL AT END OF TIME STEP   26, STRESS PERIOD   3
  ------------------------------------------------------------------------------

     CUMULATIVE VOLUMES      L**3       RATES FOR THIS TIME STEP      L**3/T
     ------------------                 ------------------------

           IN:                                      IN:
           ---                                      ---
             STORAGE =       96840.7500               STORAGE =        1195.4758
       CONSTANT HEAD =       69774.3438         CONSTANT HEAD =          16.2252
               WELLS =       36200.0000                 WELLS =         600.0000
       RIVER LEAKAGE =      211534.9844         RIVER LEAKAGE =           0.0000

            TOTAL IN =      414350.0625              TOTAL IN =        1811.7009

          OUT:                                     OUT:
          ----                                     ----
             STORAGE =      247757.6875               STORAGE =           8.4885
       CONSTANT HEAD =        2510.2595         CONSTANT HEAD =         227.3263
               WELLS =       58200.0000                 WELLS =         100.0000
       RIVER LEAKAGE =      105882.1172         RIVER LEAKAGE =        1475.8872

           TOTAL OUT =      414350.0625             TOTAL OUT =        1811.7020

            IN - OUT =           0.0000              IN - OUT =      -1.0986E-03

 PERCENT DISCREPANCY =           0.00     PERCENT DISCREPANCY =          -0.00






         TIME SUMMARY AT END OF TIME STEP   26 IN STRESS PERIOD    3
                    SECONDS     MINUTES      HOURS       DAYS        YEARS
                    -----------------------------------------------------------
   TIME STEP LENGTH  86400.      1440.0      24.000      1.0000     2.73785E-03
 STRESS PERIOD TIME 2.24640E+06  37440.      624.00      26.000     7.11841E-02
         TOTAL TIME 1.09728E+07 1.82880E+05  3048.0      127.00     0.34771    
1
 
 SOLVING FOR HEAD 

 OUTPUT CONTROL FOR STRESS PERIOD    3   TIME STEP   27
    SAVE HEAD FOR ALL LAYERS
    SAVE DRAWDOWN FOR ALL LAYERS
    SAVE BUDGET
    PRINT HEAD FOR ALL LAYERS
    PRINT BUDGET
 UBDSV1 SAVING "         STORAGE" ON UNIT   1 AT TIME STEP 27, STRESS PERIOD   3
 UBDSV2 SAVING "   CONSTANT HEAD" ON UNIT   1 AT TIME STEP 27, STRESS PERIOD   3
 UBDSV1 SAVING "FLOW RIGHT FACE " ON UNIT   1 AT TIME STEP 27, STRESS PERIOD   3
 UBDSV1 SAVING "FLOW FRONT FACE " ON UNIT   1 AT TIME STEP 27, STRESS PERIOD   3
1
              HEAD IN LAYER   1 AT END OF TIME STEP  27 IN STRESS PERIOD    3
  ---------------------------------------------------------------------------

            1           2           3           4           5           6           7           8           9          10
           11          12          13          14          15
 ........................................................................................................................
   1    4.650       4.650       4.650       4.650       4.650       4.650       4.650       4.650       4.650       4.650    
        4.650       4.650       4.650       4.650       4.650    
   2    4.617       4.606       4.588       4.585       4.650       4.727       4.790       4.829       4.825       4.835    
        4.848       4.856       4.853       4.847       4.841    
   3    4.454       4.426       4.368       4.307       4.491       4.666       4.803       4.899       4.931       4.961    
        4.992       5.013       5.002       4.984       4.971    
   4    4.253       4.209       4.082       3.704       4.257       4.555       4.760       4.913       4.987       5.048    
        5.133       5.199       5.153       5.091       5.054    
   5    4.083       4.064       4.027       4.002       4.240       4.484       4.702       4.891       4.999       5.109    
        5.289       5.497       5.319       5.171       5.099    
   6    3.948       3.954       3.974       4.038       4.204       4.409       4.619       4.821       4.953       5.099    
        5.416       6.177       5.453       5.173       5.070    
   7    3.828       3.847       3.891       3.976       4.118       4.295       4.487       4.678       4.798       4.917    
        5.097       5.310       5.139       4.997       4.936    
   8    3.687       3.709       3.759       3.844       3.967       4.120       4.288       4.454       4.551       4.636    
        4.742       4.826       4.792       4.736       4.703    
   9    3.483       3.504       3.550       3.624       3.727       3.855       3.999       4.146       4.230       4.297    
        4.368       4.420       4.425       4.410       4.397    
  10    3.180       3.197       3.233       3.290       3.370       3.473       3.597       3.741       3.844       3.911    
        3.972       4.016       4.035       4.039       4.037    
  11    2.758       2.770       2.793       2.831       2.884       2.956       3.054       3.205       3.402       3.488    
        3.553       3.596       3.620       3.631       3.634    
  12    2.444       2.451       2.466       2.490       2.524       2.571       2.637       2.733       2.934       3.050    
        3.116       3.156       3.179       3.191       3.196    
  13    2.319       2.324       2.335       2.352       2.377       2.410       2.453       2.505       2.570       2.632    
        2.674       2.701       2.717       2.726       2.730    
  14    2.179       2.182       2.188       2.197       2.211       2.228       2.249       2.269       2.278       2.297    
        2.314       2.327       2.335       2.339       2.341    
  15    2.030       2.030       2.031       2.033       2.034       2.036       2.038       2.039       2.040       2.041    
        2.042       2.043       2.044       2.044       2.044    
  16    2.167       2.170       2.174       2.180       2.186       2.190       2.188       2.184       2.179       2.175    
        2.172       2.169       2.168       2.167       2.167    
  17    2.292       2.297       2.305       2.317       2.330       2.339       2.331       2.318       2.306       2.297    
        2.290       2.285       2.281       2.279       2.278    
  18    2.396       2.402       2.414       2.434       2.461       2.487       2.461       2.434       2.413       2.398    
        2.388       2.380       2.375       2.372       2.371    
  19    2.470       2.477       2.493       2.521       2.567       2.665       2.567       2.520       2.491       2.471    
        2.457       2.448       2.442       2.438       2.436    
  20    2.508       2.516       2.533       2.560       2.595       2.628       2.595       2.558       2.529       2.508    
        2.493       2.483       2.476       2.472       2.470    

 HEAD WILL BE SAVED ON UNIT   51 AT END OF TIME STEP   27, STRESS PERIOD    3

 DRAWDOWN WILL BE SAVED ON UNIT   52 AT END OF TIME STEP   27, STRESS PERIOD    3
1
  VOLUMETRIC BUDGET FOR ENTIRE MODEL AT END OF TIME STEP   27, STRESS PERIOD   3
  ------------------------------------------------------------------------------

     CUMULATIVE VOLUMES      L**3       RATES FOR THIS TIME STEP      L**3/T
     ------------------                 ------------------------

           IN:                                      IN:
           ---                                      ---
             STORAGE =       98001.1641               STORAGE =        1160.4171
       CONSTANT HEAD =       69785.4688         CONSTANT HEAD =          11.1244
               WELLS =       36800.0000                 WELLS =         600.0000
       RIVER LEAKAGE =      211534.9844         RIVER LEAKAGE =           0.0000

            TOTAL IN =      416121.6250              TOTAL IN =        1771.5415

          OUT:                                     OUT:
          ----                                     ----
             STORAGE =      247763.4688               STORAGE =           5.7836
       CONSTANT HEAD =        2754.3875         CONSTANT HEAD =         244.1280
               WELLS =       58300.0000                 WELLS =         100.0000
       RIVER LEAKAGE =      107303.7500         RIVER LEAKAGE =        1421.6295

           TOTAL OUT =      416121.6250             TOTAL OUT =        1771.5413

            IN - OUT =           0.0000              IN - OUT =       2.4414E-04

 PERCENT DISCREPANCY =           0.00     PERCENT DISCREPANCY =           0.00






         TIME SUMMARY AT END OF TIME STEP   27 IN STRESS PERIOD    3
                    SECONDS     MINUTES      HOURS       DAYS        YEARS
                    -----------------------------------------------------------
   TIME STEP LENGTH  86400.      1440.0      24.000      1.0000     2.73785E-03
 STRESS PERIOD TIME 2.33280E+06  38880.      648.00      27.000     7.39220E-02
         TOTAL TIME 1.10592E+07 1.84320E+05  3072.0      128.00     0.35044    
1
 
 SOLVING FOR HEAD 

 OUTPUT CONTROL FOR STRESS PERIOD    3   TIME STEP   28
    SAVE HEAD FOR ALL LAYERS
    SAVE DRAWDOWN FOR ALL LAYERS
    SAVE BUDGET
    PRINT HEAD FOR ALL LAYERS
    PRINT BUDGET
 UBDSV1 SAVING "         STORAGE" ON UNIT   1 AT TIME STEP 28, STRESS PERIOD   3
 UBDSV2 SAVING "   CONSTANT HEAD" ON UNIT   1 AT TIME STEP 28, STRESS PERIOD   3
 UBDSV1 SAVING "FLOW RIGHT FACE " ON UNIT   1 AT TIME STEP 28, STRESS PERIOD   3
 UBDSV1 SAVING "FLOW FRONT FACE " ON UNIT   1 AT TIME STEP 28, STRESS PERIOD   3
1
              HEAD IN LAYER   1 AT END OF TIME STEP  28 IN STRESS PERIOD    3
  ---------------------------------------------------------------------------

            1           2           3           4           5           6           7           8           9          10
           11          12          13          14          15
 ........................................................................................................................
   1    4.600       4.600       4.600       4.600       4.600       4.600       4.600       4.600       4.600       4.600    
        4.600       4.600       4.600       4.600       4.600    
   2    4.586       4.574       4.556       4.553       4.617       4.693       4.756       4.794       4.788       4.798    
        4.811       4.819       4.817       4.809       4.804    
   3    4.439       4.411       4.352       4.290       4.472       4.646       4.781       4.875       4.905       4.935    
        4.970       4.991       4.982       4.960       4.945    
   4    4.249       4.206       4.077       3.698       4.248       4.543       4.745       4.896       4.970       5.027    
        5.111       5.178       5.132       5.068       5.031    
   5    4.085       4.067       4.029       4.001       4.236       4.477       4.690       4.876       4.987       5.091    
        5.268       5.475       5.297       5.149       5.077    
   6    3.952       3.957       3.976       4.038       4.200       4.401       4.606       4.804       4.935       5.079    
        5.395       6.155       5.431       5.153       5.048    
   7    3.827       3.845       3.889       3.972       4.111       4.285       4.472       4.658       4.777       4.895    
        5.075       5.288       5.117       4.981       4.914    
   8    3.678       3.701       3.750       3.833       3.954       4.104       4.269       4.432       4.528       4.613    
        4.718       4.802       4.768       4.712       4.679    
   9    3.467       3.489       3.534       3.607       3.708       3.834       3.977       4.122       4.206       4.272    
        4.344       4.395       4.400       4.385       4.372    
  10    3.160       3.177       3.213       3.270       3.349       3.451       3.573       3.717       3.821       3.887    
        3.949       3.992       4.011       4.015       4.013    
  11    2.741       2.752       2.776       2.813       2.866       2.937       3.035       3.185       3.381       3.467    
        3.532       3.574       3.598       3.609       3.612    
  12    2.432       2.439       2.454       2.477       2.511       2.558       2.624       2.719       2.918       3.034    
        3.099       3.139       3.162       3.174       3.178    
  13    2.310       2.315       2.326       2.343       2.367       2.400       2.443       2.495       2.559       2.621    
        2.663       2.689       2.705       2.714       2.718    
  14    2.174       2.177       2.183       2.192       2.205       2.222       2.243       2.263       2.272       2.291    
        2.309       2.321       2.329       2.333       2.335    
  15    2.029       2.029       2.030       2.031       2.033       2.035       2.036       2.038       2.038       2.039    
        2.041       2.042       2.042       2.042       2.043    
  16    2.158       2.160       2.165       2.170       2.177       2.180       2.179       2.174       2.169       2.165    
        2.162       2.160       2.158       2.157       2.157    
  17    2.276       2.280       2.288       2.300       2.313       2.322       2.314       2.301       2.289       2.279    
        2.272       2.267       2.264       2.262       2.261    
  18    2.373       2.379       2.392       2.411       2.438       2.464       2.438       2.411       2.390       2.375    
        2.364       2.356       2.351       2.348       2.346    
  19    2.442       2.450       2.466       2.493       2.540       2.637       2.540       2.492       2.463       2.443    
        2.429       2.419       2.413       2.409       2.407    
  20    2.479       2.487       2.504       2.530       2.566       2.599       2.565       2.528       2.499       2.478    
        2.463       2.452       2.445       2.441       2.439    

 HEAD WILL BE SAVED ON UNIT   51 AT END OF TIME STEP   28, STRESS PERIOD    3

 DRAWDOWN WILL BE SAVED ON UNIT   52 AT END OF TIME STEP   28, STRESS PERIOD    3
1
  VOLUMETRIC BUDGET FOR ENTIRE MODEL AT END OF TIME STEP   28, STRESS PERIOD   3
  ------------------------------------------------------------------------------

     CUMULATIVE VOLUMES      L**3       RATES FOR THIS TIME STEP      L**3/T
     ------------------                 ------------------------

           IN:                                      IN:
           ---                                      ---
             STORAGE =       99131.1484               STORAGE =        1129.9852
       CONSTANT HEAD =       69792.5938         CONSTANT HEAD =           7.1281
               WELLS =       37400.0000                 WELLS =         600.0000
       RIVER LEAKAGE =      211534.9844         RIVER LEAKAGE =           0.0000

            TOTAL IN =      417858.7500              TOTAL IN =        1737.1134

          OUT:                                     OUT:
          ----                                     ----
             STORAGE =      247766.9062               STORAGE =           3.4361
       CONSTANT HEAD =        3016.7214         CONSTANT HEAD =         262.3341
               WELLS =       58400.0000                 WELLS =         100.0000
       RIVER LEAKAGE =      108675.0938         RIVER LEAKAGE =        1371.3424

           TOTAL OUT =      417858.7188             TOTAL OUT =        1737.1125

            IN - OUT =       3.1250E-02              IN - OUT =       8.5449E-04

 PERCENT DISCREPANCY =           0.00     PERCENT DISCREPANCY =           0.00






         TIME SUMMARY AT END OF TIME STEP   28 IN STRESS PERIOD    3
                    SECONDS     MINUTES      HOURS       DAYS        YEARS
                    -----------------------------------------------------------
   TIME STEP LENGTH  86400.      1440.0      24.000      1.0000     2.73785E-03
 STRESS PERIOD TIME 2.41920E+06  40320.      672.00      28.000     7.66598E-02
         TOTAL TIME 1.11456E+07 1.85760E+05  3096.0      129.00     0.35318    
1
 
 SOLVING FOR HEAD 

 OUTPUT CONTROL FOR STRESS PERIOD    3   TIME STEP   29
    SAVE HEAD FOR ALL LAYERS
    SAVE DRAWDOWN FOR ALL LAYERS
    SAVE BUDGET
    PRINT HEAD FOR ALL LAYERS
    PRINT BUDGET
 UBDSV1 SAVING "         STORAGE" ON UNIT   1 AT TIME STEP 29, STRESS PERIOD   3
 UBDSV2 SAVING "   CONSTANT HEAD" ON UNIT   1 AT TIME STEP 29, STRESS PERIOD   3
 UBDSV1 SAVING "FLOW RIGHT FACE " ON UNIT   1 AT TIME STEP 29, STRESS PERIOD   3
 UBDSV1 SAVING "FLOW FRONT FACE " ON UNIT   1 AT TIME STEP 29, STRESS PERIOD   3
1
              HEAD IN LAYER   1 AT END OF TIME STEP  29 IN STRESS PERIOD    3
  ---------------------------------------------------------------------------

            1           2           3           4           5           6           7           8           9          10
           11          12          13          14          15
 ........................................................................................................................
   1    4.550       4.550       4.550       4.550       4.550       4.550       4.550       4.550       4.550       4.550    
        4.550       4.550       4.550       4.550       4.550    
   2    4.554       4.542       4.524       4.520       4.584       4.659       4.721       4.758       4.750       4.760    
        4.773       4.782       4.779       4.771       4.765    
   3    4.422       4.394       4.335       4.271       4.452       4.624       4.758       4.850       4.878       4.907    
        4.944       4.968       4.956       4.932       4.916    
   4    4.244       4.200       4.071       3.690       4.238       4.530       4.729       4.877       4.949       5.004    
        5.088       5.154       5.107       5.043       5.004    
   5    4.086       4.067       4.029       3.999       4.231       4.468       4.677       4.860       4.969       5.070    
        5.246       5.452       5.274       5.125       5.052    
   6    3.954       3.958       3.977       4.036       4.196       4.393       4.593       4.788       4.916       5.058    
        5.373       6.133       5.408       5.130       5.025    
   7    3.825       3.843       3.886       3.968       4.104       4.273       4.457       4.639       4.756       4.873    
        5.052       5.265       5.095       4.960       4.892    
   8    3.670       3.692       3.741       3.823       3.941       4.088       4.250       4.411       4.506       4.590    
        4.695       4.778       4.744       4.689       4.655    
   9    3.452       3.473       3.518       3.590       3.690       3.814       3.955       4.099       4.183       4.249    
        4.320       4.371       4.376       4.361       4.348    
  10    3.142       3.159       3.195       3.251       3.329       3.429       3.551       3.694       3.799       3.865    
        3.926       3.969       3.988       3.991       3.990    
  11    2.725       2.736       2.760       2.796       2.849       2.919       3.017       3.166       3.362       3.448    
        3.511       3.554       3.578       3.588       3.592    
  12    2.421       2.428       2.443       2.466       2.500       2.546       2.611       2.706       2.903       3.018    
        3.083       3.123       3.145       3.157       3.162    
  13    2.302       2.307       2.317       2.334       2.358       2.391       2.434       2.485       2.549       2.611    
        2.652       2.678       2.694       2.703       2.707    
  14    2.169       2.172       2.177       2.187       2.200       2.217       2.237       2.258       2.266       2.286    
        2.303       2.315       2.323       2.328       2.330    
  15    2.028       2.028       2.029       2.030       2.032       2.034       2.035       2.037       2.037       2.038    
        2.039       2.040       2.041       2.041       2.041    
  16    2.149       2.151       2.156       2.162       2.168       2.172       2.170       2.165       2.160       2.156    
        2.153       2.150       2.149       2.148       2.148    
  17    2.260       2.264       2.272       2.284       2.298       2.306       2.298       2.285       2.273       2.263    
        2.256       2.251       2.247       2.245       2.244    
  18    2.352       2.358       2.370       2.390       2.416       2.443       2.416       2.389       2.368       2.353    
        2.342       2.334       2.329       2.326       2.324    
  19    2.417       2.425       2.441       2.468       2.515       2.612       2.514       2.466       2.437       2.417    
        2.403       2.393       2.387       2.383       2.381    
  20    2.451       2.460       2.477       2.503       2.538       2.571       2.537       2.500       2.471       2.450    
        2.434       2.424       2.417       2.412       2.410    

 HEAD WILL BE SAVED ON UNIT   51 AT END OF TIME STEP   29, STRESS PERIOD    3

 DRAWDOWN WILL BE SAVED ON UNIT   52 AT END OF TIME STEP   29, STRESS PERIOD    3
1
  VOLUMETRIC BUDGET FOR ENTIRE MODEL AT END OF TIME STEP   29, STRESS PERIOD   3
  ------------------------------------------------------------------------------

     CUMULATIVE VOLUMES      L**3       RATES FOR THIS TIME STEP      L**3/T
     ------------------                 ------------------------

           IN:                                      IN:
           ---                                      ---
             STORAGE =      100233.7734               STORAGE =        1102.6227
       CONSTANT HEAD =       69796.0625         CONSTANT HEAD =           3.4656
               WELLS =       38000.0000                 WELLS =         600.0000
       RIVER LEAKAGE =      211534.9844         RIVER LEAKAGE =           0.0000

            TOTAL IN =      419564.8125              TOTAL IN =        1706.0883

          OUT:                                     OUT:
          ----                                     ----
             STORAGE =      247768.5469               STORAGE =           1.6415
       CONSTANT HEAD =        3296.4775         CONSTANT HEAD =         279.7560
               WELLS =       58500.0000                 WELLS =         100.0000
       RIVER LEAKAGE =      109999.7891         RIVER LEAKAGE =        1324.6923

           TOTAL OUT =      419564.8125             TOTAL OUT =        1706.0898

            IN - OUT =           0.0000              IN - OUT =      -1.5869E-03

 PERCENT DISCREPANCY =           0.00     PERCENT DISCREPANCY =          -0.00






         TIME SUMMARY AT END OF TIME STEP   29 IN STRESS PERIOD    3
                    SECONDS     MINUTES      HOURS       DAYS        YEARS
                    -----------------------------------------------------------
   TIME STEP LENGTH  86400.      1440.0      24.000      1.0000     2.73785E-03
 STRESS PERIOD TIME 2.50560E+06  41760.      696.00      29.000     7.93977E-02
         TOTAL TIME 1.12320E+07 1.87200E+05  3120.0      130.00     0.35592    
1
 
 SOLVING FOR HEAD 

 OUTPUT CONTROL FOR STRESS PERIOD    3   TIME STEP   30
    SAVE HEAD FOR ALL LAYERS
    SAVE DRAWDOWN FOR ALL LAYERS
    SAVE BUDGET
    PRINT HEAD FOR ALL LAYERS
    PRINT BUDGET
 UBDSV1 SAVING "         STORAGE" ON UNIT   1 AT TIME STEP 30, STRESS PERIOD   3
 UBDSV2 SAVING "   CONSTANT HEAD" ON UNIT   1 AT TIME STEP 30, STRESS PERIOD   3
 UBDSV1 SAVING "FLOW RIGHT FACE " ON UNIT   1 AT TIME STEP 30, STRESS PERIOD   3
 UBDSV1 SAVING "FLOW FRONT FACE " ON UNIT   1 AT TIME STEP 30, STRESS PERIOD   3
1
              HEAD IN LAYER   1 AT END OF TIME STEP  30 IN STRESS PERIOD    3
  ---------------------------------------------------------------------------

            1           2           3           4           5           6           7           8           9          10
           11          12          13          14          15
 ........................................................................................................................
   1    4.500       4.500       4.500       4.500       4.500       4.500       4.500       4.500       4.500       4.500    
        4.500       4.500       4.500       4.500       4.500    
   2    4.521       4.510       4.491       4.487       4.550       4.624       4.685       4.721       4.711       4.721    
        4.735       4.744       4.741       4.732       4.726    
   3    4.405       4.377       4.317       4.252       4.432       4.602       4.733       4.824       4.849       4.879    
        4.915       4.940       4.927       4.903       4.886    
   4    4.238       4.194       4.064       3.682       4.227       4.516       4.712       4.857       4.927       4.986    
        5.064       5.129       5.082       5.019       4.986    
   5    4.087       4.067       4.027       3.996       4.225       4.458       4.664       4.843       4.950       5.050    
        5.224       5.429       5.250       5.102       5.031    
   6    3.955       3.959       3.976       4.034       4.191       4.383       4.580       4.770       4.897       5.038    
        5.351       6.110       5.386       5.108       5.003    
   7    3.823       3.840       3.882       3.962       4.095       4.262       4.441       4.621       4.736       4.851    
        5.030       5.243       5.072       4.938       4.869    
   8    3.661       3.683       3.731       3.812       3.928       4.073       4.231       4.390       4.484       4.567    
        4.672       4.755       4.721       4.666       4.632    
   9    3.438       3.459       3.503       3.574       3.673       3.795       3.933       4.076       4.161       4.226    
        4.297       4.348       4.353       4.338       4.325    
  10    3.124       3.141       3.177       3.233       3.310       3.409       3.530       3.672       3.777       3.843    
        3.904       3.947       3.966       3.969       3.968    
  11    2.710       2.721       2.744       2.781       2.833       2.903       3.000       3.148       3.343       3.429    
        3.492       3.535       3.558       3.569       3.572    
  12    2.411       2.418       2.433       2.456       2.489       2.535       2.600       2.694       2.889       3.003    
        3.068       3.107       3.130       3.141       3.146    
  13    2.294       2.299       2.310       2.326       2.350       2.383       2.425       2.476       2.540       2.601    
        2.642       2.668       2.684       2.693       2.697    
  14    2.164       2.167       2.173       2.182       2.195       2.212       2.232       2.253       2.261       2.281    
        2.298       2.310       2.318       2.322       2.324    
  15    2.026       2.027       2.028       2.029       2.031       2.032       2.034       2.035       2.036       2.037    
        2.038       2.039       2.040       2.040       2.040    
  16    2.141       2.143       2.148       2.154       2.160       2.163       2.162       2.157       2.152       2.147    
        2.144       2.142       2.140       2.139       2.139    
  17    2.246       2.250       2.258       2.270       2.283       2.292       2.284       2.271       2.258       2.248    
        2.241       2.236       2.232       2.230       2.229    
  18    2.332       2.338       2.351       2.370       2.397       2.423       2.396       2.369       2.348       2.332    
        2.321       2.313       2.308       2.305       2.303    
  19    2.394       2.402       2.418       2.445       2.491       2.589       2.491       2.443       2.413       2.393    
        2.378       2.369       2.362       2.358       2.356    
  20    2.426       2.434       2.451       2.478       2.513       2.546       2.512       2.475       2.445       2.424    
        2.408       2.397       2.390       2.386       2.384    

 HEAD WILL BE SAVED ON UNIT   51 AT END OF TIME STEP   30, STRESS PERIOD    3

 DRAWDOWN WILL BE SAVED ON UNIT   52 AT END OF TIME STEP   30, STRESS PERIOD    3
1
  VOLUMETRIC BUDGET FOR ENTIRE MODEL AT END OF TIME STEP   30, STRESS PERIOD   3
  ------------------------------------------------------------------------------

     CUMULATIVE VOLUMES      L**3       RATES FOR THIS TIME STEP      L**3/T
     ------------------                 ------------------------

           IN:                                      IN:
           ---                                      ---
             STORAGE =      101311.6328               STORAGE =        1077.8621
       CONSTANT HEAD =       69797.2656         CONSTANT HEAD =           1.2053
               WELLS =       38600.0000                 WELLS =         600.0000
       RIVER LEAKAGE =      211534.9844         RIVER LEAKAGE =           0.0000

            TOTAL IN =      421243.8750              TOTAL IN =        1679.0674

          OUT:                                     OUT:
          ----                                     ----
             STORAGE =      247768.9688               STORAGE =           0.4178
       CONSTANT HEAD =        3593.7522         CONSTANT HEAD =         297.2746
               WELLS =       58600.0000                 WELLS =         100.0000
       RIVER LEAKAGE =      111281.1641         RIVER LEAKAGE =        1281.3743

           TOTAL OUT =      421243.8750             TOTAL OUT =        1679.0667

            IN - OUT =           0.0000              IN - OUT =       7.3242E-04

 PERCENT DISCREPANCY =           0.00     PERCENT DISCREPANCY =           0.00






         TIME SUMMARY AT END OF TIME STEP   30 IN STRESS PERIOD    3
                    SECONDS     MINUTES      HOURS       DAYS        YEARS
                    -----------------------------------------------------------
   TIME STEP LENGTH  86400.      1440.0      24.000      1.0000     2.73785E-03
 STRESS PERIOD TIME 2.59200E+06  43200.      720.00      30.000     8.21355E-02
         TOTAL TIME 1.13184E+07 1.88640E+05  3144.0      131.00     0.35866    
1
 
 SOLVING FOR HEAD 

 OUTPUT CONTROL FOR STRESS PERIOD    3   TIME STEP   31
    SAVE HEAD FOR ALL LAYERS
    SAVE DRAWDOWN FOR ALL LAYERS
    SAVE BUDGET
    PRINT HEAD FOR ALL LAYERS
    PRINT BUDGET
 UBDSV1 SAVING "         STORAGE" ON UNIT   1 AT TIME STEP 31, STRESS PERIOD   3
 UBDSV2 SAVING "   CONSTANT HEAD" ON UNIT   1 AT TIME STEP 31, STRESS PERIOD   3
 UBDSV1 SAVING "FLOW RIGHT FACE " ON UNIT   1 AT TIME STEP 31, STRESS PERIOD   3
 UBDSV1 SAVING "FLOW FRONT FACE " ON UNIT   1 AT TIME STEP 31, STRESS PERIOD   3
1
              HEAD IN LAYER   1 AT END OF TIME STEP  31 IN STRESS PERIOD    3
  ---------------------------------------------------------------------------

            1           2           3           4           5           6           7           8           9          10
           11          12          13          14          15
 ........................................................................................................................
   1    4.450       4.450       4.450       4.450       4.450       4.450       4.450       4.450       4.450       4.450    
        4.450       4.450       4.450       4.450       4.450    
   2    4.488       4.477       4.458       4.453       4.515       4.589       4.649       4.684       4.672       4.682    
        4.695       4.704       4.701       4.693       4.687    
   3    4.387       4.358       4.298       4.232       4.410       4.579       4.708       4.796       4.820       4.849    
        4.885       4.909       4.896       4.872       4.857    
   4    4.231       4.186       4.055       3.672       4.215       4.501       4.694       4.837       4.905       4.963    
        5.038       5.102       5.056       4.996       4.965    
   5    4.085       4.066       4.025       3.992       4.218       4.448       4.650       4.825       4.929       5.028    
        5.200       5.405       5.227       5.081       5.012    
   6    3.955       3.958       3.975       4.031       4.185       4.374       4.567       4.753       4.877       5.016    
        5.328       6.087       5.363       5.088       4.989    
   7    3.819       3.837       3.877       3.956       4.087       4.250       4.426       4.602       4.715       4.830    
        5.008       5.220       5.050       4.916       4.849    
   8    3.653       3.674       3.722       3.801       3.915       4.057       4.213       4.369       4.462       4.545    
        4.649       4.733       4.698       4.644       4.610    
   9    3.424       3.445       3.489       3.559       3.656       3.776       3.913       4.054       4.139       4.204    
        4.275       4.325       4.330       4.315       4.303    
  10    3.108       3.125       3.160       3.215       3.292       3.390       3.509       3.652       3.757       3.823    
        3.883       3.926       3.945       3.948       3.947    
  11    2.696       2.707       2.730       2.767       2.818       2.888       2.983       3.131       3.326       3.411    
        3.474       3.516       3.540       3.550       3.553    
  12    2.402       2.409       2.423       2.446       2.479       2.525       2.589       2.682       2.876       2.989    
        3.054       3.092       3.115       3.127       3.131    
  13    2.287       2.292       2.302       2.319       2.343       2.375       2.417       2.468       2.531       2.592    
        2.633       2.659       2.674       2.683       2.687    
  14    2.160       2.163       2.168       2.178       2.191       2.207       2.228       2.248       2.257       2.276    
        2.293       2.305       2.313       2.317       2.319    
  15    2.025       2.026       2.027       2.028       2.030       2.031       2.033       2.034       2.035       2.036    
        2.037       2.038       2.039       2.039       2.039    
  16    2.134       2.136       2.140       2.146       2.152       2.156       2.154       2.149       2.144       2.140    
        2.136       2.134       2.133       2.132       2.131    
  17    2.233       2.237       2.245       2.256       2.270       2.278       2.270       2.257       2.245       2.235    
        2.227       2.222       2.218       2.216       2.215    
  18    2.314       2.320       2.333       2.352       2.379       2.405       2.378       2.351       2.329       2.314    
        2.302       2.294       2.289       2.286       2.284    
  19    2.373       2.380       2.396       2.423       2.470       2.567       2.469       2.421       2.391       2.370    
        2.356       2.346       2.339       2.335       2.333    
  20    2.403       2.411       2.428       2.454       2.490       2.522       2.488       2.451       2.421       2.400    
        2.384       2.373       2.366       2.361       2.359    

 HEAD WILL BE SAVED ON UNIT   51 AT END OF TIME STEP   31, STRESS PERIOD    3

 DRAWDOWN WILL BE SAVED ON UNIT   52 AT END OF TIME STEP   31, STRESS PERIOD    3
1
  VOLUMETRIC BUDGET FOR ENTIRE MODEL AT END OF TIME STEP   31, STRESS PERIOD   3
  ------------------------------------------------------------------------------

     CUMULATIVE VOLUMES      L**3       RATES FOR THIS TIME STEP      L**3/T
     ------------------                 ------------------------

           IN:                                      IN:
           ---                                      ---
             STORAGE =      102367.3828               STORAGE =        1055.7496
       CONSTANT HEAD =       69797.2656         CONSTANT HEAD =           0.0000
               WELLS =       39200.0000                 WELLS =         600.0000
       RIVER LEAKAGE =      211534.9844         RIVER LEAKAGE =           0.0000

            TOTAL IN =      422899.6250              TOTAL IN =        1655.7496

          OUT:                                     OUT:
          ----                                     ----
             STORAGE =      247768.9688               STORAGE =       1.5259E-03
       CONSTANT HEAD =        3908.3835         CONSTANT HEAD =         314.6314
               WELLS =       58700.0000                 WELLS =         100.0000
       RIVER LEAKAGE =      112522.2812         RIVER LEAKAGE =        1241.1177

           TOTAL OUT =      422899.6562             TOTAL OUT =        1655.7506

            IN - OUT =      -3.1250E-02              IN - OUT =      -9.7656E-04

 PERCENT DISCREPANCY =          -0.00     PERCENT DISCREPANCY =          -0.00






         TIME SUMMARY AT END OF TIME STEP   31 IN STRESS PERIOD    3
                    SECONDS     MINUTES      HOURS       DAYS        YEARS
                    -----------------------------------------------------------
   TIME STEP LENGTH  86400.      1440.0      24.000      1.0000     2.73785E-03
 STRESS PERIOD TIME 2.67840E+06  44640.      744.00      31.000     8.48734E-02
         TOTAL TIME 1.14048E+07 1.90080E+05  3168.0      132.00     0.36140    
1
 
 SOLVING FOR HEAD 

 OUTPUT CONTROL FOR STRESS PERIOD    3   TIME STEP   32
    SAVE HEAD FOR ALL LAYERS
    SAVE DRAWDOWN FOR ALL LAYERS
    SAVE BUDGET
    PRINT HEAD FOR ALL LAYERS
    PRINT BUDGET
 UBDSV1 SAVING "         STORAGE" ON UNIT   1 AT TIME STEP 32, STRESS PERIOD   3
 UBDSV2 SAVING "   CONSTANT HEAD" ON UNIT   1 AT TIME STEP 32, STRESS PERIOD   3
 UBDSV1 SAVING "FLOW RIGHT FACE " ON UNIT   1 AT TIME STEP 32, STRESS PERIOD   3
 UBDSV1 SAVING "FLOW FRONT FACE " ON UNIT   1 AT TIME STEP 32, STRESS PERIOD   3
1
              HEAD IN LAYER   1 AT END OF TIME STEP  32 IN STRESS PERIOD    3
  ---------------------------------------------------------------------------

            1           2           3           4           5           6           7           8           9          10
           11          12          13          14          15
 ........................................................................................................................
   1    4.400       4.400       4.400       4.400       4.400       4.400       4.400       4.400       4.400       4.400    
        4.400       4.400       4.400       4.400       4.400    
   2    4.455       4.443       4.424       4.418       4.480       4.553       4.612       4.646       4.633       4.642    
        4.655       4.664       4.661       4.653       4.647    
   3    4.368       4.339       4.278       4.211       4.388       4.555       4.682       4.768       4.789       4.817    
        4.852       4.877       4.865       4.842       4.826    
   4    4.223       4.178       4.046       3.660       4.202       4.486       4.676       4.815       4.880       4.938    
        5.011       5.076       5.031       4.977       4.944    
   5    4.083       4.063       4.021       3.986       4.210       4.437       4.635       4.807       4.908       5.005    
        5.177       5.381       5.205       5.062       4.995    
   6    3.954       3.957       3.972       4.026       4.178       4.363       4.552       4.735       4.856       4.997    
        5.308       6.066       5.343       5.069       4.973    
   7    3.816       3.833       3.872       3.949       4.078       4.238       4.410       4.583       4.695       4.809    
        4.991       5.200       5.029       4.896       4.829    
   8    3.644       3.666       3.712       3.790       3.902       4.042       4.195       4.348       4.441       4.524    
        4.628       4.711       4.677       4.622       4.589    
   9    3.411       3.431       3.475       3.544       3.639       3.758       3.893       4.033       4.118       4.183    
        4.254       4.304       4.309       4.294       4.281    
  10    3.093       3.110       3.144       3.199       3.275       3.371       3.490       3.631       3.737       3.803    
        3.863       3.906       3.925       3.928       3.926    
  11    2.683       2.694       2.717       2.753       2.804       2.873       2.968       3.115       3.309       3.394    
        3.456       3.498       3.522       3.532       3.535    
  12    2.393       2.400       2.414       2.437       2.470       2.515       2.579       2.672       2.864       2.976    
        3.040       3.078       3.101       3.112       3.117    
  13    2.280       2.285       2.296       2.312       2.336       2.368       2.409       2.460       2.523       2.583    
        2.624       2.649       2.665       2.674       2.677    
  14    2.156       2.159       2.164       2.174       2.186       2.203       2.223       2.244       2.252       2.272    
        2.289       2.301       2.308       2.313       2.315    
  15    2.024       2.025       2.026       2.027       2.029       2.030       2.032       2.033       2.034       2.035    
        2.036       2.037       2.037       2.038       2.038    
  16    2.127       2.129       2.133       2.139       2.145       2.149       2.147       2.142       2.137       2.132    
        2.129       2.127       2.125       2.124       2.124    
  17    2.220       2.224       2.232       2.244       2.257       2.266       2.258       2.244       2.232       2.222    
        2.214       2.209       2.205       2.203       2.202    
  18    2.298       2.304       2.316       2.335       2.362       2.388       2.361       2.334       2.312       2.296    
        2.285       2.277       2.271       2.268       2.266    
  19    2.353       2.360       2.376       2.403       2.450       2.547       2.448       2.400       2.370       2.350    
        2.335       2.325       2.319       2.314       2.312    
  20    2.382       2.390       2.406       2.433       2.468       2.501       2.466       2.429       2.399       2.377    
        2.361       2.350       2.343       2.339       2.336    

 HEAD WILL BE SAVED ON UNIT   51 AT END OF TIME STEP   32, STRESS PERIOD    3

 DRAWDOWN WILL BE SAVED ON UNIT   52 AT END OF TIME STEP   32, STRESS PERIOD    3
1
  VOLUMETRIC BUDGET FOR ENTIRE MODEL AT END OF TIME STEP   32, STRESS PERIOD   3
  ------------------------------------------------------------------------------

     CUMULATIVE VOLUMES      L**3       RATES FOR THIS TIME STEP      L**3/T
     ------------------                 ------------------------

           IN:                                      IN:
           ---                                      ---
             STORAGE =      103403.2969               STORAGE =        1035.9167
       CONSTANT HEAD =       69797.2656         CONSTANT HEAD =           0.0000
               WELLS =       39800.0000                 WELLS =         600.0000
       RIVER LEAKAGE =      211534.9844         RIVER LEAKAGE =           0.0000

            TOTAL IN =      424535.5625              TOTAL IN =        1635.9167

          OUT:                                     OUT:
          ----                                     ----
             STORAGE =      247768.9688               STORAGE =           0.0000
       CONSTANT HEAD =        4240.6284         CONSTANT HEAD =         332.2450
               WELLS =       58800.0000                 WELLS =         100.0000
       RIVER LEAKAGE =      113725.9531         RIVER LEAKAGE =        1203.6716

           TOTAL OUT =      424535.5625             TOTAL OUT =        1635.9166

            IN - OUT =           0.0000              IN - OUT =       1.2207E-04

 PERCENT DISCREPANCY =           0.00     PERCENT DISCREPANCY =           0.00






         TIME SUMMARY AT END OF TIME STEP   32 IN STRESS PERIOD    3
                    SECONDS     MINUTES      HOURS       DAYS        YEARS
                    -----------------------------------------------------------
   TIME STEP LENGTH  86400.      1440.0      24.000      1.0000     2.73785E-03
 STRESS PERIOD TIME 2.76480E+06  46080.      768.00      32.000     8.76112E-02
         TOTAL TIME 1.14912E+07 1.91520E+05  3192.0      133.00     0.36413    
1
 
 SOLVING FOR HEAD 

 OUTPUT CONTROL FOR STRESS PERIOD    3   TIME STEP   33
    SAVE HEAD FOR ALL LAYERS
    SAVE DRAWDOWN FOR ALL LAYERS
    SAVE BUDGET
    PRINT HEAD FOR ALL LAYERS
    PRINT BUDGET
 UBDSV1 SAVING "         STORAGE" ON UNIT   1 AT TIME STEP 33, STRESS PERIOD   3
 UBDSV2 SAVING "   CONSTANT HEAD" ON UNIT   1 AT TIME STEP 33, STRESS PERIOD   3
 UBDSV1 SAVING "FLOW RIGHT FACE " ON UNIT   1 AT TIME STEP 33, STRESS PERIOD   3
 UBDSV1 SAVING "FLOW FRONT FACE " ON UNIT   1 AT TIME STEP 33, STRESS PERIOD   3
1
              HEAD IN LAYER   1 AT END OF TIME STEP  33 IN STRESS PERIOD    3
  ---------------------------------------------------------------------------

            1           2           3           4           5           6           7           8           9          10
           11          12          13          14          15
 ........................................................................................................................
   1    4.350       4.350       4.350       4.350       4.350       4.350       4.350       4.350       4.350       4.350    
        4.350       4.350       4.350       4.350       4.350    
   2    4.421       4.409       4.390       4.384       4.445       4.517       4.575       4.607       4.593       4.601    
        4.615       4.623       4.620       4.613       4.607    
   3    4.348       4.319       4.257       4.189       4.365       4.530       4.656       4.739       4.758       4.786    
        4.821       4.844       4.833       4.811       4.795    
   4    4.213       4.168       4.035       3.648       4.188       4.469       4.657       4.793       4.855       4.914    
        4.990       5.051       5.006       4.954       4.921    
   5    4.080       4.059       4.016       3.980       4.201       4.425       4.620       4.788       4.888       4.990    
        5.158       5.360       5.183       5.042       4.980    
   6    3.952       3.955       3.969       4.021       4.170       4.352       4.538       4.718       4.838       4.983    
        5.291       6.047       5.323       5.049       4.955    
   7    3.812       3.828       3.867       3.942       4.068       4.225       4.394       4.564       4.675       4.791    
        4.975       5.181       5.010       4.875       4.810    
   8    3.636       3.657       3.702       3.779       3.889       4.026       4.177       4.329       4.421       4.504    
        4.609       4.691       4.656       4.602       4.568    
   9    3.398       3.418       3.461       3.529       3.623       3.740       3.873       4.013       4.098       4.163    
        4.233       4.283       4.288       4.273       4.261    
  10    3.078       3.095       3.129       3.183       3.258       3.354       3.471       3.612       3.718       3.784    
        3.844       3.887       3.905       3.908       3.907    
  11    2.671       2.682       2.705       2.741       2.791       2.859       2.954       3.100       3.293       3.377    
        3.440       3.481       3.505       3.515       3.518    
  12    2.385       2.392       2.406       2.429       2.461       2.506       2.569       2.661       2.852       2.963    
        3.027       3.065       3.087       3.099       3.103    
  13    2.274       2.279       2.289       2.306       2.329       2.361       2.402       2.453       2.515       2.575    
        2.615       2.641       2.656       2.665       2.669    
  14    2.152       2.155       2.161       2.170       2.183       2.199       2.219       2.239       2.248       2.267    
        2.284       2.296       2.304       2.308       2.310    
  15    2.024       2.024       2.025       2.026       2.028       2.030       2.031       2.032       2.033       2.034    
        2.035       2.036       2.036       2.037       2.037    
  16    2.120       2.123       2.127       2.133       2.139       2.142       2.140       2.135       2.130       2.126    
        2.123       2.120       2.118       2.117       2.117    
  17    2.209       2.213       2.221       2.233       2.246       2.254       2.246       2.233       2.220       2.210    
        2.202       2.197       2.193       2.191       2.190    
  18    2.282       2.288       2.300       2.320       2.346       2.372       2.345       2.318       2.296       2.280    
        2.269       2.261       2.255       2.252       2.250    
  19    2.334       2.342       2.358       2.385       2.431       2.528       2.430       2.381       2.351       2.331    
        2.316       2.306       2.299       2.295       2.293    
  20    2.362       2.370       2.386       2.413       2.448       2.480       2.446       2.408       2.379       2.357    
        2.341       2.330       2.322       2.318       2.315    

 HEAD WILL BE SAVED ON UNIT   51 AT END OF TIME STEP   33, STRESS PERIOD    3

 DRAWDOWN WILL BE SAVED ON UNIT   52 AT END OF TIME STEP   33, STRESS PERIOD    3
1
  VOLUMETRIC BUDGET FOR ENTIRE MODEL AT END OF TIME STEP   33, STRESS PERIOD   3
  ------------------------------------------------------------------------------

     CUMULATIVE VOLUMES      L**3       RATES FOR THIS TIME STEP      L**3/T
     ------------------                 ------------------------

           IN:                                      IN:
           ---                                      ---
             STORAGE =      104421.2969               STORAGE =        1018.0029
       CONSTANT HEAD =       69797.2656         CONSTANT HEAD =           0.0000
               WELLS =       40400.0000                 WELLS =         600.0000
       RIVER LEAKAGE =      211534.9844         RIVER LEAKAGE =           0.0000

            TOTAL IN =      426153.5625              TOTAL IN =        1618.0029

          OUT:                                     OUT:
          ----                                     ----
             STORAGE =      247768.9688               STORAGE =           0.0000
       CONSTANT HEAD =        4589.8188         CONSTANT HEAD =         349.1906
               WELLS =       58900.0000                 WELLS =         100.0000
       RIVER LEAKAGE =      114894.7656         RIVER LEAKAGE =        1168.8113

           TOTAL OUT =      426153.5625             TOTAL OUT =        1618.0020

            IN - OUT =           0.0000              IN - OUT =       9.7656E-04

 PERCENT DISCREPANCY =           0.00     PERCENT DISCREPANCY =           0.00






         TIME SUMMARY AT END OF TIME STEP   33 IN STRESS PERIOD    3
                    SECONDS     MINUTES      HOURS       DAYS        YEARS
                    -----------------------------------------------------------
   TIME STEP LENGTH  86400.      1440.0      24.000      1.0000     2.73785E-03
 STRESS PERIOD TIME 2.85120E+06  47520.      792.00      33.000     9.03491E-02
         TOTAL TIME 1.15776E+07 1.92960E+05  3216.0      134.00     0.36687    
1
 
 SOLVING FOR HEAD 

 OUTPUT CONTROL FOR STRESS PERIOD    3   TIME STEP   34
    SAVE HEAD FOR ALL LAYERS
    SAVE DRAWDOWN FOR ALL LAYERS
    SAVE BUDGET
    PRINT HEAD FOR ALL LAYERS
    PRINT BUDGET
 UBDSV1 SAVING "         STORAGE" ON UNIT   1 AT TIME STEP 34, STRESS PERIOD   3
 UBDSV2 SAVING "   CONSTANT HEAD" ON UNIT   1 AT TIME STEP 34, STRESS PERIOD   3
 UBDSV1 SAVING "FLOW RIGHT FACE " ON UNIT   1 AT TIME STEP 34, STRESS PERIOD   3
 UBDSV1 SAVING "FLOW FRONT FACE " ON UNIT   1 AT TIME STEP 34, STRESS PERIOD   3
1
              HEAD IN LAYER   1 AT END OF TIME STEP  34 IN STRESS PERIOD    3
  ---------------------------------------------------------------------------

            1           2           3           4           5           6           7           8           9          10
           11          12          13          14          15
 ........................................................................................................................
   1    4.300       4.300       4.300       4.300       4.300       4.300       4.300       4.300       4.300       4.300    
        4.300       4.300       4.300       4.300       4.300    
   2    4.387       4.374       4.355       4.348       4.409       4.480       4.537       4.568       4.552       4.561    
        4.574       4.582       4.580       4.572       4.566    
   3    4.328       4.298       4.236       4.167       4.341       4.505       4.628       4.709       4.726       4.754    
        4.790       4.813       4.801       4.779       4.764    
   4    4.203       4.157       4.024       3.635       4.173       4.452       4.637       4.770       4.831       4.891    
        4.970       5.028       4.986       4.930       4.897    
   5    4.076       4.054       4.010       3.972       4.191       4.412       4.604       4.769       4.868       4.973    
        5.139       5.340       5.163       5.022       4.962    
   6    3.949       3.951       3.964       4.015       4.161       4.341       4.523       4.700       4.820       4.966    
        5.273       6.028       5.304       5.030       4.937    
   7    3.807       3.823       3.861       3.934       4.058       4.212       4.379       4.546       4.656       4.773    
        4.957       5.163       4.993       4.856       4.791    
   8    3.627       3.648       3.693       3.768       3.876       4.011       4.159       4.309       4.402       4.485    
        4.590       4.672       4.637       4.582       4.548    
   9    3.385       3.406       3.448       3.515       3.608       3.723       3.855       3.993       4.078       4.144    
        4.214       4.264       4.268       4.253       4.241    
  10    3.064       3.081       3.115       3.169       3.242       3.337       3.453       3.594       3.700       3.766    
        3.826       3.868       3.886       3.889       3.888    
  11    2.660       2.671       2.693       2.729       2.779       2.846       2.940       3.086       3.278       3.362    
        3.424       3.465       3.488       3.499       3.502    
  12    2.377       2.384       2.398       2.421       2.453       2.498       2.560       2.652       2.841       2.951    
        3.014       3.052       3.075       3.086       3.090    
  13    2.268       2.273       2.284       2.300       2.323       2.355       2.396       2.446       2.507       2.567    
        2.607       2.632       2.648       2.656       2.660    
  14    2.149       2.152       2.157       2.166       2.179       2.195       2.215       2.235       2.244       2.263    
        2.280       2.292       2.299       2.304       2.306    
  15    2.023       2.023       2.024       2.025       2.027       2.029       2.030       2.031       2.032       2.033    
        2.034       2.035       2.036       2.036       2.036    
  16    2.115       2.117       2.121       2.127       2.133       2.136       2.134       2.129       2.124       2.120    
        2.116       2.114       2.112       2.111       2.111    
  17    2.198       2.202       2.210       2.222       2.235       2.244       2.235       2.222       2.209       2.199    
        2.191       2.186       2.182       2.180       2.179    
  18    2.268       2.274       2.286       2.305       2.331       2.358       2.331       2.303       2.281       2.265    
        2.254       2.246       2.240       2.237       2.235    
  19    2.317       2.325       2.341       2.368       2.414       2.511       2.412       2.364       2.334       2.313    
        2.298       2.288       2.281       2.277       2.275    
  20    2.343       2.351       2.368       2.394       2.429       2.462       2.427       2.390       2.360       2.337    
        2.321       2.310       2.303       2.298       2.296    

 HEAD WILL BE SAVED ON UNIT   51 AT END OF TIME STEP   34, STRESS PERIOD    3

 DRAWDOWN WILL BE SAVED ON UNIT   52 AT END OF TIME STEP   34, STRESS PERIOD    3
1
  VOLUMETRIC BUDGET FOR ENTIRE MODEL AT END OF TIME STEP   34, STRESS PERIOD   3
  ------------------------------------------------------------------------------

     CUMULATIVE VOLUMES      L**3       RATES FOR THIS TIME STEP      L**3/T
     ------------------                 ------------------------

           IN:                                      IN:
           ---                                      ---
             STORAGE =      105423.3828               STORAGE =        1002.0856
       CONSTANT HEAD =       69797.2656         CONSTANT HEAD =           0.0000
               WELLS =       41000.0000                 WELLS =         600.0000
       RIVER LEAKAGE =      211534.9844         RIVER LEAKAGE =           0.0000

            TOTAL IN =      427755.6250              TOTAL IN =        1602.0857

          OUT:                                     OUT:
          ----                                     ----
             STORAGE =      247768.9688               STORAGE =           0.0000
       CONSTANT HEAD =        4955.5713         CONSTANT HEAD =         365.7524
               WELLS =       59000.0000                 WELLS =         100.0000
       RIVER LEAKAGE =      116031.1016         RIVER LEAKAGE =        1136.3341

           TOTAL OUT =      427755.6562             TOTAL OUT =        1602.0865

            IN - OUT =      -3.1250E-02              IN - OUT =      -8.5449E-04

 PERCENT DISCREPANCY =          -0.00     PERCENT DISCREPANCY =          -0.00






         TIME SUMMARY AT END OF TIME STEP   34 IN STRESS PERIOD    3
                    SECONDS     MINUTES      HOURS       DAYS        YEARS
                    -----------------------------------------------------------
   TIME STEP LENGTH  86400.      1440.0      24.000      1.0000     2.73785E-03
 STRESS PERIOD TIME 2.93760E+06  48960.      816.00      34.000     9.30869E-02
         TOTAL TIME 1.16640E+07 1.94400E+05  3240.0      135.00     0.36961    
1
 
 SOLVING FOR HEAD 

 OUTPUT CONTROL FOR STRESS PERIOD    3   TIME STEP   35
    SAVE HEAD FOR ALL LAYERS
    SAVE DRAWDOWN FOR ALL LAYERS
    SAVE BUDGET
    PRINT HEAD FOR ALL LAYERS
    PRINT BUDGET
 UBDSV1 SAVING "         STORAGE" ON UNIT   1 AT TIME STEP 35, STRESS PERIOD   3
 UBDSV2 SAVING "   CONSTANT HEAD" ON UNIT   1 AT TIME STEP 35, STRESS PERIOD   3
 UBDSV1 SAVING "FLOW RIGHT FACE " ON UNIT   1 AT TIME STEP 35, STRESS PERIOD   3
 UBDSV1 SAVING "FLOW FRONT FACE " ON UNIT   1 AT TIME STEP 35, STRESS PERIOD   3
1
              HEAD IN LAYER   1 AT END OF TIME STEP  35 IN STRESS PERIOD    3
  ---------------------------------------------------------------------------

            1           2           3           4           5           6           7           8           9          10
           11          12          13          14          15
 ........................................................................................................................
   1    4.250       4.250       4.250       4.250       4.250       4.250       4.250       4.250       4.250       4.250    
        4.250       4.250       4.250       4.250       4.250    
   2    4.352       4.340       4.319       4.313       4.372       4.443       4.499       4.528       4.512       4.520    
        4.533       4.542       4.539       4.531       4.525    
   3    4.306       4.276       4.213       4.144       4.316       4.478       4.600       4.679       4.694       4.722    
        4.758       4.780       4.770       4.747       4.731    
   4    4.191       4.145       4.011       3.621       4.157       4.434       4.616       4.747       4.805       4.866    
        4.945       5.002       4.964       4.905       4.872    
   5    4.070       4.048       4.004       3.964       4.180       4.398       4.587       4.750       4.847       4.952    
        5.118       5.318       5.142       5.000       4.941    
   6    3.945       3.947       3.959       4.008       4.152       4.328       4.508       4.682       4.801       4.948    
        5.254       6.009       5.285       5.011       4.917    
   7    3.802       3.817       3.854       3.926       4.047       4.199       4.363       4.528       4.638       4.755    
        4.939       5.145       4.978       4.838       4.771    
   8    3.618       3.639       3.683       3.757       3.864       3.996       4.142       4.290       4.383       4.466    
        4.571       4.653       4.618       4.563       4.529    
   9    3.374       3.393       3.435       3.501       3.593       3.707       3.836       3.974       4.060       4.125    
        4.195       4.245       4.249       4.234       4.221    
  10    3.051       3.068       3.102       3.154       3.227       3.321       3.436       3.576       3.683       3.748    
        3.808       3.850       3.869       3.871       3.870    
  11    2.649       2.660       2.682       2.717       2.767       2.834       2.927       3.072       3.263       3.347    
        3.408       3.450       3.473       3.483       3.486    
  12    2.370       2.377       2.391       2.413       2.445       2.490       2.552       2.642       2.830       2.940    
        3.002       3.040       3.062       3.074       3.078    
  13    2.263       2.268       2.278       2.294       2.317       2.349       2.389       2.439       2.500       2.560    
        2.599       2.625       2.640       2.648       2.652    
  14    2.146       2.148       2.154       2.163       2.176       2.192       2.212       2.232       2.241       2.260    
        2.276       2.288       2.295       2.300       2.302    
  15    2.022       2.022       2.023       2.025       2.026       2.028       2.029       2.031       2.031       2.032    
        2.033       2.034       2.035       2.035       2.035    
  16    2.109       2.111       2.115       2.121       2.127       2.131       2.129       2.124       2.118       2.114    
        2.111       2.108       2.106       2.105       2.105    
  17    2.188       2.192       2.201       2.212       2.225       2.234       2.225       2.212       2.199       2.189    
        2.181       2.176       2.172       2.170       2.168    
  18    2.254       2.260       2.273       2.292       2.318       2.344       2.317       2.289       2.268       2.252    
        2.240       2.232       2.226       2.223       2.221    
  19    2.301       2.309       2.325       2.352       2.398       2.495       2.396       2.348       2.317       2.297    
        2.282       2.272       2.265       2.260       2.258    
  20    2.326       2.334       2.351       2.377       2.412       2.444       2.410       2.372       2.342       2.320    
        2.304       2.292       2.285       2.280       2.278    

 HEAD WILL BE SAVED ON UNIT   51 AT END OF TIME STEP   35, STRESS PERIOD    3

 DRAWDOWN WILL BE SAVED ON UNIT   52 AT END OF TIME STEP   35, STRESS PERIOD    3
1
  VOLUMETRIC BUDGET FOR ENTIRE MODEL AT END OF TIME STEP   35, STRESS PERIOD   3
  ------------------------------------------------------------------------------

     CUMULATIVE VOLUMES      L**3       RATES FOR THIS TIME STEP      L**3/T
     ------------------                 ------------------------

           IN:                                      IN:
           ---                                      ---
             STORAGE =      106411.2734               STORAGE =         987.8910
       CONSTANT HEAD =       69797.2656         CONSTANT HEAD =           0.0000
               WELLS =       41600.0000                 WELLS =         600.0000
       RIVER LEAKAGE =      211534.9844         RIVER LEAKAGE =           0.0000

            TOTAL IN =      429343.5000              TOTAL IN =        1587.8910

          OUT:                                     OUT:
          ----                                     ----
             STORAGE =      247768.9688               STORAGE =           0.0000
       CONSTANT HEAD =        5337.4087         CONSTANT HEAD =         381.8375
               WELLS =       59100.0000                 WELLS =         100.0000
       RIVER LEAKAGE =      117137.1562         RIVER LEAKAGE =        1106.0527

           TOTAL OUT =      429343.5312             TOTAL OUT =        1587.8903

            IN - OUT =      -3.1250E-02              IN - OUT =       7.3242E-04

 PERCENT DISCREPANCY =          -0.00     PERCENT DISCREPANCY =           0.00






         TIME SUMMARY AT END OF TIME STEP   35 IN STRESS PERIOD    3
                    SECONDS     MINUTES      HOURS       DAYS        YEARS
                    -----------------------------------------------------------
   TIME STEP LENGTH  86400.      1440.0      24.000      1.0000     2.73785E-03
 STRESS PERIOD TIME 3.02400E+06  50400.      840.00      35.000     9.58248E-02
         TOTAL TIME 1.17504E+07 1.95840E+05  3264.0      136.00     0.37235    
1
 
 SOLVING FOR HEAD 

 OUTPUT CONTROL FOR STRESS PERIOD    3   TIME STEP   36
    SAVE HEAD FOR ALL LAYERS
    SAVE DRAWDOWN FOR ALL LAYERS
    SAVE BUDGET
    PRINT HEAD FOR ALL LAYERS
    PRINT BUDGET
 UBDSV1 SAVING "         STORAGE" ON UNIT   1 AT TIME STEP 36, STRESS PERIOD   3
 UBDSV2 SAVING "   CONSTANT HEAD" ON UNIT   1 AT TIME STEP 36, STRESS PERIOD   3
 UBDSV1 SAVING "FLOW RIGHT FACE " ON UNIT   1 AT TIME STEP 36, STRESS PERIOD   3
 UBDSV1 SAVING "FLOW FRONT FACE " ON UNIT   1 AT TIME STEP 36, STRESS PERIOD   3
1
              HEAD IN LAYER   1 AT END OF TIME STEP  36 IN STRESS PERIOD    3
  ---------------------------------------------------------------------------

            1           2           3           4           5           6           7           8           9          10
           11          12          13          14          15
 ........................................................................................................................
   1    4.200       4.200       4.200       4.200       4.200       4.200       4.200       4.200       4.200       4.200    
        4.200       4.200       4.200       4.200       4.200    
   2    4.317       4.304       4.284       4.276       4.336       4.405       4.461       4.489       4.471       4.479    
        4.492       4.501       4.498       4.490       4.484    
   3    4.284       4.254       4.190       4.119       4.291       4.452       4.572       4.648       4.661       4.689    
        4.725       4.749       4.738       4.714       4.699    
   4    4.179       4.133       3.997       3.606       4.140       4.415       4.594       4.723       4.779       4.840    
        4.921       4.984       4.940       4.881       4.846    
   5    4.064       4.042       3.996       3.954       4.169       4.384       4.570       4.730       4.826       4.931    
        5.097       5.299       5.124       4.986       4.920    
   6    3.941       3.942       3.953       4.001       4.142       4.316       4.492       4.664       4.781       4.928    
        5.234       5.990       5.268       4.995       4.899    
   7    3.796       3.811       3.847       3.918       4.037       4.186       4.347       4.510       4.619       4.736    
        4.920       5.127       4.961       4.820       4.753    
   8    3.610       3.630       3.673       3.746       3.851       3.981       4.125       4.272       4.364       4.448    
        4.553       4.634       4.600       4.544       4.510    
   9    3.362       3.382       3.423       3.488       3.578       3.690       3.819       3.956       4.041       4.107    
        4.177       4.227       4.231       4.216       4.203    
  10    3.039       3.055       3.089       3.141       3.213       3.305       3.420       3.559       3.666       3.731    
        3.791       3.833       3.851       3.854       3.852    
  11    2.639       2.650       2.672       2.707       2.756       2.822       2.915       3.059       3.249       3.332    
        3.394       3.435       3.458       3.468       3.471    
  12    2.364       2.370       2.384       2.406       2.438       2.482       2.544       2.634       2.820       2.929    
        2.991       3.029       3.051       3.062       3.066    
  13    2.258       2.263       2.273       2.289       2.312       2.343       2.383       2.433       2.494       2.552    
        2.592       2.617       2.632       2.641       2.644    
  14    2.143       2.145       2.151       2.160       2.172       2.189       2.208       2.228       2.237       2.256    
        2.272       2.284       2.292       2.296       2.298    
  15    2.021       2.022       2.023       2.024       2.025       2.027       2.029       2.030       2.030       2.032    
        2.033       2.033       2.034       2.034       2.034    
  16    2.104       2.106       2.110       2.116       2.122       2.126       2.123       2.119       2.113       2.109    
        2.105       2.103       2.101       2.100       2.100    
  17    2.179       2.183       2.191       2.203       2.216       2.225       2.216       2.202       2.190       2.180    
        2.172       2.166       2.162       2.160       2.159    
  18    2.242       2.248       2.260       2.279       2.306       2.332       2.304       2.277       2.255       2.239    
        2.227       2.219       2.213       2.210       2.208    
  19    2.287       2.294       2.310       2.337       2.383       2.480       2.381       2.333       2.302       2.281    
        2.267       2.256       2.249       2.245       2.243    
  20    2.310       2.318       2.335       2.361       2.396       2.428       2.394       2.356       2.326       2.303    
        2.287       2.276       2.268       2.263       2.261    

 HEAD WILL BE SAVED ON UNIT   51 AT END OF TIME STEP   36, STRESS PERIOD    3

 DRAWDOWN WILL BE SAVED ON UNIT   52 AT END OF TIME STEP   36, STRESS PERIOD    3
1
  VOLUMETRIC BUDGET FOR ENTIRE MODEL AT END OF TIME STEP   36, STRESS PERIOD   3
  ------------------------------------------------------------------------------

     CUMULATIVE VOLUMES      L**3       RATES FOR THIS TIME STEP      L**3/T
     ------------------                 ------------------------

           IN:                                      IN:
           ---                                      ---
             STORAGE =      107386.6484               STORAGE =         975.3728
       CONSTANT HEAD =       69797.2656         CONSTANT HEAD =           0.0000
               WELLS =       42200.0000                 WELLS =         600.0000
       RIVER LEAKAGE =      211534.9844         RIVER LEAKAGE =           0.0000

            TOTAL IN =      430918.8750              TOTAL IN =        1575.3728

          OUT:                                     OUT:
          ----                                     ----
             STORAGE =      247768.9688               STORAGE =           0.0000
       CONSTANT HEAD =        5734.9819         CONSTANT HEAD =         397.5732
               WELLS =       59200.0000                 WELLS =         100.0000
       RIVER LEAKAGE =      118214.9531         RIVER LEAKAGE =        1077.7999

           TOTAL OUT =      430918.8750             TOTAL OUT =        1575.3732

            IN - OUT =           0.0000              IN - OUT =      -3.6621E-04

 PERCENT DISCREPANCY =           0.00     PERCENT DISCREPANCY =          -0.00






         TIME SUMMARY AT END OF TIME STEP   36 IN STRESS PERIOD    3
                    SECONDS     MINUTES      HOURS       DAYS        YEARS
                    -----------------------------------------------------------
   TIME STEP LENGTH  86400.      1440.0      24.000      1.0000     2.73785E-03
 STRESS PERIOD TIME 3.11040E+06  51840.      864.00      36.000     9.85626E-02
         TOTAL TIME 1.18368E+07 1.97280E+05  3288.0      137.00     0.37509    
1
 
 SOLVING FOR HEAD 

 OUTPUT CONTROL FOR STRESS PERIOD    3   TIME STEP   37
    SAVE HEAD FOR ALL LAYERS
    SAVE DRAWDOWN FOR ALL LAYERS
    SAVE BUDGET
    PRINT HEAD FOR ALL LAYERS
    PRINT BUDGET
 UBDSV1 SAVING "         STORAGE" ON UNIT   1 AT TIME STEP 37, STRESS PERIOD   3
 UBDSV2 SAVING "   CONSTANT HEAD" ON UNIT   1 AT TIME STEP 37, STRESS PERIOD   3
 UBDSV1 SAVING "FLOW RIGHT FACE " ON UNIT   1 AT TIME STEP 37, STRESS PERIOD   3
 UBDSV1 SAVING "FLOW FRONT FACE " ON UNIT   1 AT TIME STEP 37, STRESS PERIOD   3
1
              HEAD IN LAYER   1 AT END OF TIME STEP  37 IN STRESS PERIOD    3
  ---------------------------------------------------------------------------

            1           2           3           4           5           6           7           8           9          10
           11          12          13          14          15
 ........................................................................................................................
   1    4.150       4.150       4.150       4.150       4.150       4.150       4.150       4.150       4.150       4.150    
        4.150       4.150       4.150       4.150       4.150    
   2    4.281       4.269       4.248       4.240       4.298       4.367       4.422       4.448       4.430       4.438    
        4.451       4.460       4.457       4.449       4.443    
   3    4.261       4.231       4.167       4.095       4.265       4.424       4.542       4.617       4.628       4.656    
        4.692       4.717       4.705       4.682       4.665    
   4    4.166       4.119       3.983       3.590       4.123       4.395       4.572       4.698       4.753       4.813    
        4.895       4.960       4.916       4.856       4.820    
   5    4.057       4.034       3.987       3.944       4.156       4.369       4.552       4.710       4.803       4.908    
        5.074       5.277       5.103       4.967       4.900    
   6    3.936       3.937       3.947       3.992       4.132       4.303       4.476       4.646       4.761       4.908    
        5.214       5.970       5.250       4.981       4.881    
   7    3.790       3.804       3.840       3.909       4.026       4.172       4.331       4.492       4.600       4.717    
        4.901       5.109       4.943       4.803       4.735    
   8    3.601       3.621       3.663       3.734       3.838       3.966       4.108       4.254       4.346       4.429    
        4.534       4.616       4.582       4.526       4.492    
   9    3.351       3.370       3.411       3.475       3.564       3.674       3.802       3.938       4.024       4.089    
        4.159       4.209       4.213       4.198       4.185    
  10    3.027       3.043       3.076       3.128       3.199       3.291       3.404       3.543       3.650       3.715    
        3.775       3.817       3.835       3.838       3.836    
  11    2.630       2.641       2.662       2.697       2.745       2.811       2.903       3.046       3.236       3.318    
        3.380       3.421       3.443       3.453       3.457    
  12    2.357       2.364       2.378       2.400       2.431       2.475       2.536       2.625       2.810       2.918    
        2.980       3.018       3.039       3.051       3.055    
  13    2.253       2.258       2.268       2.284       2.307       2.338       2.378       2.427       2.487       2.546    
        2.585       2.610       2.625       2.633       2.637    
  14    2.140       2.143       2.148       2.157       2.169       2.185       2.205       2.225       2.234       2.253    
        2.269       2.281       2.288       2.292       2.294    
  15    2.021       2.021       2.022       2.023       2.025       2.026       2.028       2.029       2.030       2.031    
        2.032       2.033       2.033       2.033       2.034    
  16    2.099       2.101       2.106       2.111       2.117       2.121       2.119       2.114       2.108       2.104    
        2.100       2.098       2.096       2.095       2.095    
  17    2.171       2.175       2.183       2.195       2.208       2.216       2.207       2.194       2.181       2.171    
        2.163       2.157       2.154       2.151       2.150    
  18    2.231       2.236       2.249       2.268       2.294       2.320       2.293       2.265       2.243       2.227    
        2.215       2.207       2.201       2.198       2.196    
  19    2.273       2.281       2.296       2.323       2.369       2.466       2.367       2.319       2.288       2.267    
        2.253       2.242       2.235       2.231       2.229    
  20    2.295       2.303       2.320       2.346       2.381       2.413       2.379       2.341       2.311       2.288    
        2.272       2.261       2.253       2.248       2.246    

 HEAD WILL BE SAVED ON UNIT   51 AT END OF TIME STEP   37, STRESS PERIOD    3

 DRAWDOWN WILL BE SAVED ON UNIT   52 AT END OF TIME STEP   37, STRESS PERIOD    3
1
  VOLUMETRIC BUDGET FOR ENTIRE MODEL AT END OF TIME STEP   37, STRESS PERIOD   3
  ------------------------------------------------------------------------------

     CUMULATIVE VOLUMES      L**3       RATES FOR THIS TIME STEP      L**3/T
     ------------------                 ------------------------

           IN:                                      IN:
           ---                                      ---
             STORAGE =      108350.9453               STORAGE =         964.2996
       CONSTANT HEAD =       69797.2656         CONSTANT HEAD =           0.0000
               WELLS =       42800.0000                 WELLS =         600.0000
       RIVER LEAKAGE =      211534.9844         RIVER LEAKAGE =           0.0000

            TOTAL IN =      432483.1875              TOTAL IN =        1564.2996

          OUT:                                     OUT:
          ----                                     ----
             STORAGE =      247768.9688               STORAGE =           0.0000
       CONSTANT HEAD =        6147.8623         CONSTANT HEAD =         412.8806
               WELLS =       59300.0000                 WELLS =         100.0000
       RIVER LEAKAGE =      119266.3750         RIVER LEAKAGE =        1051.4191

           TOTAL OUT =      432483.1875             TOTAL OUT =        1564.2997

            IN - OUT =           0.0000              IN - OUT =      -1.2207E-04

 PERCENT DISCREPANCY =           0.00     PERCENT DISCREPANCY =          -0.00






         TIME SUMMARY AT END OF TIME STEP   37 IN STRESS PERIOD    3
                    SECONDS     MINUTES      HOURS       DAYS        YEARS
                    -----------------------------------------------------------
   TIME STEP LENGTH  86400.      1440.0      24.000      1.0000     2.73785E-03
 STRESS PERIOD TIME 3.19680E+06  53280.      888.00      37.000     0.10130    
         TOTAL TIME 1.19232E+07 1.98720E+05  3312.0      138.00     0.37782    
1
 
 SOLVING FOR HEAD 

 OUTPUT CONTROL FOR STRESS PERIOD    3   TIME STEP   38
    SAVE HEAD FOR ALL LAYERS
    SAVE DRAWDOWN FOR ALL LAYERS
    SAVE BUDGET
    PRINT HEAD FOR ALL LAYERS
    PRINT BUDGET
 UBDSV1 SAVING "         STORAGE" ON UNIT   1 AT TIME STEP 38, STRESS PERIOD   3
 UBDSV2 SAVING "   CONSTANT HEAD" ON UNIT   1 AT TIME STEP 38, STRESS PERIOD   3
 UBDSV1 SAVING "FLOW RIGHT FACE " ON UNIT   1 AT TIME STEP 38, STRESS PERIOD   3
 UBDSV1 SAVING "FLOW FRONT FACE " ON UNIT   1 AT TIME STEP 38, STRESS PERIOD   3
1
              HEAD IN LAYER   1 AT END OF TIME STEP  38 IN STRESS PERIOD    3
  ---------------------------------------------------------------------------

            1           2           3           4           5           6           7           8           9          10
           11          12          13          14          15
 ........................................................................................................................
   1    4.100       4.100       4.100       4.100       4.100       4.100       4.100       4.100       4.100       4.100    
        4.100       4.100       4.100       4.100       4.100    
   2    4.245       4.232       4.211       4.203       4.261       4.329       4.383       4.408       4.388       4.396    
        4.410       4.418       4.416       4.408       4.401    
   3    4.238       4.207       4.142       4.069       4.238       4.396       4.512       4.585       4.594       4.622    
        4.659       4.684       4.672       4.648       4.632    
   4    4.152       4.105       3.968       3.573       4.104       4.374       4.550       4.673       4.725       4.785    
        4.868       4.934       4.889       4.829       4.793    
   5    4.048       4.025       3.977       3.933       4.143       4.353       4.534       4.689       4.780       4.885    
        5.050       5.254       5.080       4.946       4.878    
   6    3.930       3.930       3.939       3.983       4.120       4.289       4.460       4.627       4.741       4.887    
        5.193       5.950       5.230       4.963       4.862    
   7    3.784       3.798       3.832       3.899       4.014       4.158       4.315       4.474       4.581       4.698    
        4.882       5.089       4.925       4.785       4.716    
   8    3.592       3.611       3.653       3.723       3.825       3.951       4.091       4.236       4.327       4.411    
        4.516       4.598       4.564       4.508       4.474    
   9    3.340       3.359       3.399       3.462       3.550       3.659       3.785       3.920       4.006       4.072    
        4.142       4.192       4.196       4.181       4.168    
  10    3.016       3.032       3.064       3.115       3.186       3.276       3.389       3.527       3.634       3.699    
        3.759       3.801       3.819       3.822       3.820    
  11    2.621       2.632       2.653       2.687       2.735       2.801       2.892       3.034       3.223       3.305    
        3.366       3.407       3.430       3.440       3.443    
  12    2.352       2.358       2.372       2.394       2.425       2.468       2.529       2.618       2.801       2.908    
        2.970       3.007       3.029       3.040       3.044    
  13    2.249       2.254       2.264       2.280       2.302       2.333       2.373       2.421       2.481       2.539    
        2.578       2.603       2.618       2.627       2.630    
  14    2.137       2.140       2.146       2.154       2.167       2.183       2.202       2.221       2.231       2.249    
        2.266       2.277       2.285       2.289       2.291    
  15    2.020       2.021       2.021       2.023       2.024       2.026       2.027       2.029       2.029       2.030    
        2.031       2.032       2.032       2.033       2.033    
  16    2.095       2.097       2.101       2.107       2.113       2.116       2.114       2.109       2.104       2.099    
        2.096       2.093       2.092       2.090       2.090    
  17    2.163       2.167       2.175       2.187       2.200       2.208       2.200       2.186       2.173       2.163    
        2.155       2.149       2.146       2.143       2.142    
  18    2.220       2.226       2.238       2.257       2.283       2.309       2.282       2.254       2.232       2.216    
        2.204       2.196       2.190       2.187       2.185    
  19    2.261       2.268       2.284       2.311       2.357       2.454       2.355       2.306       2.275       2.254    
        2.239       2.229       2.222       2.218       2.216    
  20    2.282       2.290       2.306       2.332       2.367       2.400       2.365       2.327       2.297       2.274    
        2.258       2.246       2.239       2.234       2.232    

 HEAD WILL BE SAVED ON UNIT   51 AT END OF TIME STEP   38, STRESS PERIOD    3

 DRAWDOWN WILL BE SAVED ON UNIT   52 AT END OF TIME STEP   38, STRESS PERIOD    3
1
  VOLUMETRIC BUDGET FOR ENTIRE MODEL AT END OF TIME STEP   38, STRESS PERIOD   3
  ------------------------------------------------------------------------------

     CUMULATIVE VOLUMES      L**3       RATES FOR THIS TIME STEP      L**3/T
     ------------------                 ------------------------

           IN:                                      IN:
           ---                                      ---
             STORAGE =      109305.3828               STORAGE =         954.4358
       CONSTANT HEAD =       69797.2656         CONSTANT HEAD =           0.0000
               WELLS =       43400.0000                 WELLS =         600.0000
       RIVER LEAKAGE =      211534.9844         RIVER LEAKAGE =           0.0000

            TOTAL IN =      434037.6250              TOTAL IN =        1554.4358

          OUT:                                     OUT:
          ----                                     ----
             STORAGE =      247768.9688               STORAGE =           0.0000
       CONSTANT HEAD =        6575.5342         CONSTANT HEAD =         427.6720
               WELLS =       59400.0000                 WELLS =         100.0000
       RIVER LEAKAGE =      120293.1406         RIVER LEAKAGE =        1026.7649

           TOTAL OUT =      434037.6250             TOTAL OUT =        1554.4369

            IN - OUT =           0.0000              IN - OUT =      -1.0986E-03

 PERCENT DISCREPANCY =           0.00     PERCENT DISCREPANCY =          -0.00






         TIME SUMMARY AT END OF TIME STEP   38 IN STRESS PERIOD    3
                    SECONDS     MINUTES      HOURS       DAYS        YEARS
                    -----------------------------------------------------------
   TIME STEP LENGTH  86400.      1440.0      24.000      1.0000     2.73785E-03
 STRESS PERIOD TIME 3.28320E+06  54720.      912.00      38.000     0.10404    
         TOTAL TIME 1.20096E+07 2.00160E+05  3336.0      139.00     0.38056    
1
 
 SOLVING FOR HEAD 

 OUTPUT CONTROL FOR STRESS PERIOD    3   TIME STEP   39
    SAVE HEAD FOR ALL LAYERS
    SAVE DRAWDOWN FOR ALL LAYERS
    SAVE BUDGET
    PRINT HEAD FOR ALL LAYERS
    PRINT BUDGET
 UBDSV1 SAVING "         STORAGE" ON UNIT   1 AT TIME STEP 39, STRESS PERIOD   3
 UBDSV2 SAVING "   CONSTANT HEAD" ON UNIT   1 AT TIME STEP 39, STRESS PERIOD   3
 UBDSV1 SAVING "FLOW RIGHT FACE " ON UNIT   1 AT TIME STEP 39, STRESS PERIOD   3
 UBDSV1 SAVING "FLOW FRONT FACE " ON UNIT   1 AT TIME STEP 39, STRESS PERIOD   3
1
              HEAD IN LAYER   1 AT END OF TIME STEP  39 IN STRESS PERIOD    3
  ---------------------------------------------------------------------------

            1           2           3           4           5           6           7           8           9          10
           11          12          13          14          15
 ........................................................................................................................
   1    4.050       4.050       4.050       4.050       4.050       4.050       4.050       4.050       4.050       4.050    
        4.050       4.050       4.050       4.050       4.050    
   2    4.209       4.196       4.175       4.166       4.223       4.290       4.343       4.367       4.347       4.354    
        4.368       4.377       4.374       4.366       4.360    
   3    4.213       4.182       4.117       4.043       4.211       4.367       4.482       4.552       4.560       4.587    
        4.624       4.650       4.638       4.614       4.597    
   4    4.137       4.089       3.951       3.556       4.085       4.353       4.526       4.647       4.697       4.757    
        4.839       4.906       4.861       4.801       4.766    
   5    4.039       4.016       3.967       3.921       4.129       4.337       4.515       4.667       4.757       4.861    
        5.026       5.229       5.056       4.923       4.855    
   6    3.923       3.923       3.931       3.974       4.109       4.275       4.443       4.608       4.720       4.866    
        5.171       5.928       5.208       4.943       4.842    
   7    3.777       3.790       3.823       3.889       4.002       4.144       4.298       4.456       4.562       4.678    
        4.862       5.070       4.905       4.766       4.698    
   8    3.583       3.602       3.643       3.712       3.812       3.936       4.075       4.218       4.309       4.393    
        4.498       4.580       4.546       4.490       4.456    
   9    3.329       3.348       3.387       3.450       3.536       3.644       3.769       3.903       3.990       4.055    
        4.125       4.175       4.179       4.164       4.151    
  10    3.005       3.021       3.053       3.103       3.173       3.262       3.374       3.512       3.619       3.684    
        3.744       3.786       3.803       3.806       3.804    
  11    2.613       2.623       2.645       2.678       2.726       2.791       2.881       3.023       3.211       3.292    
        3.353       3.394       3.416       3.426       3.429    
  12    2.346       2.353       2.366       2.388       2.419       2.462       2.522       2.610       2.792       2.899    
        2.960       2.997       3.018       3.029       3.034    
  13    2.245       2.250       2.260       2.275       2.298       2.328       2.367       2.416       2.475       2.533    
        2.572       2.597       2.612       2.620       2.623    
  14    2.135       2.138       2.143       2.152       2.164       2.180       2.199       2.218       2.228       2.246    
        2.262       2.274       2.281       2.285       2.287    
  15    2.020       2.020       2.021       2.022       2.024       2.025       2.027       2.028       2.028       2.029    
        2.031       2.031       2.032       2.032       2.032    
  16    2.091       2.093       2.097       2.103       2.109       2.112       2.110       2.105       2.100       2.095    
        2.092       2.089       2.087       2.086       2.086    
  17    2.156       2.160       2.168       2.179       2.192       2.201       2.192       2.179       2.166       2.155    
        2.148       2.142       2.138       2.136       2.134    
  18    2.210       2.216       2.228       2.247       2.273       2.300       2.272       2.244       2.222       2.206    
        2.194       2.186       2.180       2.176       2.175    
  19    2.249       2.256       2.272       2.299       2.345       2.442       2.343       2.294       2.263       2.242    
        2.227       2.217       2.210       2.205       2.203    
  20    2.269       2.277       2.294       2.320       2.355       2.387       2.352       2.314       2.284       2.261    
        2.245       2.233       2.225       2.221       2.218    

 HEAD WILL BE SAVED ON UNIT   51 AT END OF TIME STEP   39, STRESS PERIOD    3

 DRAWDOWN WILL BE SAVED ON UNIT   52 AT END OF TIME STEP   39, STRESS PERIOD    3
1
  VOLUMETRIC BUDGET FOR ENTIRE MODEL AT END OF TIME STEP   39, STRESS PERIOD   3
  ------------------------------------------------------------------------------

     CUMULATIVE VOLUMES      L**3       RATES FOR THIS TIME STEP      L**3/T
     ------------------                 ------------------------

           IN:                                      IN:
           ---                                      ---
             STORAGE =      110250.9922               STORAGE =         945.6119
       CONSTANT HEAD =       69797.2656         CONSTANT HEAD =           0.0000
               WELLS =       44000.0000                 WELLS =         600.0000
       RIVER LEAKAGE =      211534.9844         RIVER LEAKAGE =           0.0000

            TOTAL IN =      435583.2500              TOTAL IN =        1545.6118

          OUT:                                     OUT:
          ----                                     ----
             STORAGE =      247768.9688               STORAGE =           0.0000
       CONSTANT HEAD =        7017.4414         CONSTANT HEAD =         441.9074
               WELLS =       59500.0000                 WELLS =         100.0000
       RIVER LEAKAGE =      121296.8438         RIVER LEAKAGE =        1003.7045

           TOTAL OUT =      435583.2500             TOTAL OUT =        1545.6118

            IN - OUT =           0.0000              IN - OUT =           0.0000

 PERCENT DISCREPANCY =           0.00     PERCENT DISCREPANCY =           0.00






         TIME SUMMARY AT END OF TIME STEP   39 IN STRESS PERIOD    3
                    SECONDS     MINUTES      HOURS       DAYS        YEARS
                    -----------------------------------------------------------
   TIME STEP LENGTH  86400.      1440.0      24.000      1.0000     2.73785E-03
 STRESS PERIOD TIME 3.36960E+06  56160.      936.00      39.000     0.10678    
         TOTAL TIME 1.20960E+07 2.01600E+05  3360.0      140.00     0.38330    
1
 
 SOLVING FOR HEAD 

 OUTPUT CONTROL FOR STRESS PERIOD    3   TIME STEP   40
    SAVE HEAD FOR ALL LAYERS
    SAVE DRAWDOWN FOR ALL LAYERS
    SAVE BUDGET
    PRINT HEAD FOR ALL LAYERS
    PRINT BUDGET
 UBDSV1 SAVING "         STORAGE" ON UNIT   1 AT TIME STEP 40, STRESS PERIOD   3
 UBDSV2 SAVING "   CONSTANT HEAD" ON UNIT   1 AT TIME STEP 40, STRESS PERIOD   3
 UBDSV1 SAVING "FLOW RIGHT FACE " ON UNIT   1 AT TIME STEP 40, STRESS PERIOD   3
 UBDSV1 SAVING "FLOW FRONT FACE " ON UNIT   1 AT TIME STEP 40, STRESS PERIOD   3
1
              HEAD IN LAYER   1 AT END OF TIME STEP  40 IN STRESS PERIOD    3
  ---------------------------------------------------------------------------

            1           2           3           4           5           6           7           8           9          10
           11          12          13          14          15
 ........................................................................................................................
   1    4.000       4.000       4.000       4.000       4.000       4.000       4.000       4.000       4.000       4.000    
        4.000       4.000       4.000       4.000       4.000    
   2    4.172       4.159       4.138       4.128       4.185       4.252       4.303       4.327       4.305       4.312    
        4.326       4.335       4.332       4.324       4.317    
   3    4.188       4.157       4.091       4.017       4.183       4.338       4.451       4.519       4.525       4.552    
        4.589       4.614       4.603       4.579       4.562    
   4    4.121       4.073       3.934       3.537       4.066       4.332       4.502       4.620       4.668       4.728    
        4.810       4.876       4.832       4.773       4.737    
   5    4.030       4.005       3.956       3.908       4.115       4.320       4.496       4.645       4.732       4.836    
        5.000       5.204       5.031       4.898       4.831    
   6    3.916       3.916       3.922       3.963       4.096       4.260       4.426       4.588       4.699       4.844    
        5.148       5.905       5.186       4.921       4.821    
   7    3.769       3.782       3.814       3.879       3.990       4.130       4.282       4.438       4.542       4.659    
        4.842       5.050       4.886       4.747       4.679    
   8    3.575       3.593       3.633       3.701       3.799       3.922       4.058       4.200       4.291       4.374    
        4.479       4.562       4.528       4.472       4.438    
   9    3.319       3.338       3.376       3.437       3.523       3.629       3.753       3.887       3.973       4.038    
        4.108       4.158       4.162       4.147       4.134    
  10    2.995       3.010       3.042       3.092       3.160       3.249       3.360       3.497       3.604       3.669    
        3.729       3.771       3.788       3.791       3.789    
  11    2.605       2.615       2.636       2.670       2.717       2.781       2.871       3.012       3.199       3.280    
        3.341       3.381       3.404       3.413       3.416    
  12    2.341       2.347       2.361       2.382       2.413       2.456       2.516       2.603       2.783       2.890    
        2.950       2.987       3.008       3.019       3.024    
  13    2.241       2.246       2.256       2.271       2.293       2.323       2.363       2.410       2.470       2.527    
        2.566       2.590       2.605       2.613       2.617    
  14    2.133       2.135       2.141       2.149       2.161       2.177       2.196       2.216       2.225       2.243    
        2.259       2.271       2.278       2.282       2.284    
  15    2.019       2.019       2.020       2.021       2.023       2.025       2.026       2.027       2.028       2.029    
        2.030       2.031       2.031       2.031       2.032    
  16    2.087       2.089       2.093       2.099       2.105       2.108       2.106       2.101       2.096       2.091    
        2.088       2.085       2.083       2.082       2.082    
  17    2.149       2.153       2.161       2.173       2.186       2.194       2.185       2.172       2.159       2.148    
        2.141       2.135       2.131       2.129       2.127    
  18    2.201       2.207       2.219       2.238       2.264       2.290       2.263       2.235       2.213       2.197    
        2.185       2.176       2.170       2.167       2.165    
  19    2.238       2.245       2.261       2.288       2.334       2.431       2.332       2.283       2.252       2.231    
        2.216       2.206       2.199       2.194       2.192    
  20    2.257       2.265       2.282       2.308       2.343       2.375       2.340       2.302       2.272       2.249    
        2.233       2.221       2.213       2.208       2.206    

 HEAD WILL BE SAVED ON UNIT   51 AT END OF TIME STEP   40, STRESS PERIOD    3

 DRAWDOWN WILL BE SAVED ON UNIT   52 AT END OF TIME STEP   40, STRESS PERIOD    3
1
  VOLUMETRIC BUDGET FOR ENTIRE MODEL AT END OF TIME STEP   40, STRESS PERIOD   3
  ------------------------------------------------------------------------------

     CUMULATIVE VOLUMES      L**3       RATES FOR THIS TIME STEP      L**3/T
     ------------------                 ------------------------

           IN:                                      IN:
           ---                                      ---
             STORAGE =      111188.6953               STORAGE =         937.7067
       CONSTANT HEAD =       69797.2656         CONSTANT HEAD =           0.0000
               WELLS =       44600.0000                 WELLS =         600.0000
       RIVER LEAKAGE =      211534.9844         RIVER LEAKAGE =           0.0000

            TOTAL IN =      437120.9375              TOTAL IN =        1537.7068

          OUT:                                     OUT:
          ----                                     ----
             STORAGE =      247768.9688               STORAGE =           0.0000
       CONSTANT HEAD =        7473.0327         CONSTANT HEAD =         455.5913
               WELLS =       59600.0000                 WELLS =         100.0000
       RIVER LEAKAGE =      122278.9609         RIVER LEAKAGE =         982.1166

           TOTAL OUT =      437120.9688             TOTAL OUT =        1537.7079

            IN - OUT =      -3.1250E-02              IN - OUT =      -1.0986E-03

 PERCENT DISCREPANCY =          -0.00     PERCENT DISCREPANCY =          -0.00






         TIME SUMMARY AT END OF TIME STEP   40 IN STRESS PERIOD    3
                    SECONDS     MINUTES      HOURS       DAYS        YEARS
                    -----------------------------------------------------------
   TIME STEP LENGTH  86400.      1440.0      24.000      1.0000     2.73785E-03
 STRESS PERIOD TIME 3.45600E+06  57600.      960.00      40.000     0.10951    
         TOTAL TIME 1.21824E+07 2.03040E+05  3384.0      141.00     0.38604    
1
 
 SOLVING FOR HEAD 

 OUTPUT CONTROL FOR STRESS PERIOD    3   TIME STEP   41
    SAVE HEAD FOR ALL LAYERS
    SAVE DRAWDOWN FOR ALL LAYERS
    SAVE BUDGET
    PRINT HEAD FOR ALL LAYERS
    PRINT BUDGET
 UBDSV1 SAVING "         STORAGE" ON UNIT   1 AT TIME STEP 41, STRESS PERIOD   3
 UBDSV2 SAVING "   CONSTANT HEAD" ON UNIT   1 AT TIME STEP 41, STRESS PERIOD   3
 UBDSV1 SAVING "FLOW RIGHT FACE " ON UNIT   1 AT TIME STEP 41, STRESS PERIOD   3
 UBDSV1 SAVING "FLOW FRONT FACE " ON UNIT   1 AT TIME STEP 41, STRESS PERIOD   3
1
              HEAD IN LAYER   1 AT END OF TIME STEP  41 IN STRESS PERIOD    3
  ---------------------------------------------------------------------------

            1           2           3           4           5           6           7           8           9          10
           11          12          13          14          15
 ........................................................................................................................
   1    3.950       3.950       3.950       3.950       3.950       3.950       3.950       3.950       3.950       3.950    
        3.950       3.950       3.950       3.950       3.950    
   2    4.135       4.122       4.100       4.090       4.146       4.212       4.263       4.285       4.263       4.270    
        4.283       4.292       4.289       4.281       4.275    
   3    4.163       4.131       4.065       3.989       4.155       4.309       4.420       4.486       4.490       4.517    
        4.554       4.579       4.567       4.543       4.527    
   4    4.105       4.056       3.917       3.518       4.045       4.309       4.478       4.593       4.639       4.699    
        4.782       4.847       4.802       4.743       4.707    
   5    4.019       3.994       3.944       3.895       4.099       4.303       4.476       4.623       4.708       4.812    
        4.982       5.180       5.006       4.873       4.806    
   6    3.908       3.907       3.913       3.953       4.084       4.245       4.409       4.568       4.677       4.823    
        5.129       5.884       5.164       4.899       4.799    
   7    3.761       3.774       3.805       3.869       3.978       4.116       4.266       4.419       4.523       4.639    
        4.823       5.030       4.866       4.727       4.659    
   8    3.566       3.584       3.623       3.689       3.786       3.907       4.042       4.183       4.273       4.356    
        4.461       4.543       4.510       4.454       4.420    
   9    3.309       3.327       3.365       3.426       3.510       3.615       3.737       3.870       3.956       4.022    
        4.092       4.141       4.146       4.130       4.117    
  10    2.985       3.000       3.032       3.081       3.148       3.236       3.346       3.483       3.590       3.655    
        3.714       3.756       3.774       3.776       3.774    
  11    2.597       2.608       2.629       2.661       2.708       2.772       2.861       3.001       3.187       3.268    
        3.328       3.369       3.391       3.401       3.404    
  12    2.336       2.343       2.356       2.377       2.407       2.450       2.509       2.596       2.775       2.881    
        2.941       2.978       2.999       3.010       3.014    
  13    2.237       2.242       2.252       2.267       2.289       2.319       2.358       2.406       2.465       2.522    
        2.560       2.584       2.599       2.607       2.611    
  14    2.130       2.133       2.139       2.147       2.159       2.175       2.194       2.213       2.222       2.240    
        2.256       2.268       2.275       2.279       2.281    
  15    2.019       2.019       2.020       2.021       2.023       2.024       2.026       2.027       2.027       2.028    
        2.029       2.030       2.031       2.031       2.031    
  16    2.084       2.086       2.090       2.096       2.101       2.105       2.103       2.098       2.092       2.087    
        2.084       2.081       2.080       2.079       2.078    
  17    2.143       2.147       2.155       2.166       2.179       2.188       2.179       2.165       2.152       2.142    
        2.134       2.128       2.125       2.122       2.121    
  18    2.193       2.198       2.211       2.230       2.256       2.282       2.254       2.226       2.204       2.188    
        2.176       2.167       2.162       2.158       2.156    
  19    2.228       2.235       2.251       2.278       2.324       2.421       2.322       2.273       2.242       2.221    
        2.206       2.195       2.188       2.184       2.182    
  20    2.246       2.254       2.271       2.297       2.332       2.364       2.329       2.291       2.260       2.238    
        2.221       2.210       2.202       2.197       2.195    

 HEAD WILL BE SAVED ON UNIT   51 AT END OF TIME STEP   41, STRESS PERIOD    3

 DRAWDOWN WILL BE SAVED ON UNIT   52 AT END OF TIME STEP   41, STRESS PERIOD    3
1
  VOLUMETRIC BUDGET FOR ENTIRE MODEL AT END OF TIME STEP   41, STRESS PERIOD   3
  ------------------------------------------------------------------------------

     CUMULATIVE VOLUMES      L**3       RATES FOR THIS TIME STEP      L**3/T
     ------------------                 ------------------------

           IN:                                      IN:
           ---                                      ---
             STORAGE =      112119.3984               STORAGE =         930.7037
       CONSTANT HEAD =       69797.2656         CONSTANT HEAD =           0.0000
               WELLS =       45200.0000                 WELLS =         600.0000
       RIVER LEAKAGE =      211534.9844         RIVER LEAKAGE =           0.0000

            TOTAL IN =      438651.6250              TOTAL IN =        1530.7036

          OUT:                                     OUT:
          ----                                     ----
             STORAGE =      247768.9688               STORAGE =           0.0000
       CONSTANT HEAD =        7941.8535         CONSTANT HEAD =         468.8206
               WELLS =       59700.0000                 WELLS =         100.0000
       RIVER LEAKAGE =      123240.8438         RIVER LEAKAGE =         961.8822

           TOTAL OUT =      438651.6562             TOTAL OUT =        1530.7029

            IN - OUT =      -3.1250E-02              IN - OUT =       7.3242E-04

 PERCENT DISCREPANCY =          -0.00     PERCENT DISCREPANCY =           0.00






         TIME SUMMARY AT END OF TIME STEP   41 IN STRESS PERIOD    3
                    SECONDS     MINUTES      HOURS       DAYS        YEARS
                    -----------------------------------------------------------
   TIME STEP LENGTH  86400.      1440.0      24.000      1.0000     2.73785E-03
 STRESS PERIOD TIME 3.54240E+06  59040.      984.00      41.000     0.11225    
         TOTAL TIME 1.22688E+07 2.04480E+05  3408.0      142.00     0.38877    
1
 
 SOLVING FOR HEAD 

 OUTPUT CONTROL FOR STRESS PERIOD    3   TIME STEP   42
    SAVE HEAD FOR ALL LAYERS
    SAVE DRAWDOWN FOR ALL LAYERS
    SAVE BUDGET
    PRINT HEAD FOR ALL LAYERS
    PRINT BUDGET
 UBDSV1 SAVING "         STORAGE" ON UNIT   1 AT TIME STEP 42, STRESS PERIOD   3
 UBDSV2 SAVING "   CONSTANT HEAD" ON UNIT   1 AT TIME STEP 42, STRESS PERIOD   3
 UBDSV1 SAVING "FLOW RIGHT FACE " ON UNIT   1 AT TIME STEP 42, STRESS PERIOD   3
 UBDSV1 SAVING "FLOW FRONT FACE " ON UNIT   1 AT TIME STEP 42, STRESS PERIOD   3
1
              HEAD IN LAYER   1 AT END OF TIME STEP  42 IN STRESS PERIOD    3
  ---------------------------------------------------------------------------

            1           2           3           4           5           6           7           8           9          10
           11          12          13          14          15
 ........................................................................................................................
   1    3.900       3.900       3.900       3.900       3.900       3.900       3.900       3.900       3.900       3.900    
        3.900       3.900       3.900       3.900       3.900    
   2    4.098       4.085       4.062       4.052       4.108       4.173       4.223       4.244       4.220       4.227    
        4.241       4.250       4.247       4.238       4.232    
   3    4.137       4.105       4.038       3.962       4.126       4.278       4.388       4.452       4.455       4.481    
        4.518       4.543       4.532       4.508       4.491    
   4    4.088       4.039       3.898       3.499       4.024       4.287       4.453       4.566       4.610       4.669    
        4.753       4.818       4.774       4.713       4.677    
   5    4.008       3.983       3.931       3.880       4.083       4.285       4.456       4.600       4.683       4.788    
        4.960       5.158       4.986       4.849       4.781    
   6    3.900       3.898       3.903       3.941       4.070       4.230       4.391       4.548       4.656       4.801    
        5.107       5.863       5.144       4.878       4.777    
   7    3.753       3.766       3.796       3.858       3.965       4.101       4.249       4.401       4.503       4.619    
        4.803       5.010       4.846       4.708       4.639    
   8    3.557       3.574       3.613       3.678       3.773       3.893       4.026       4.166       4.255       4.338    
        4.443       4.525       4.492       4.436       4.402    
   9    3.299       3.317       3.354       3.414       3.497       3.601       3.722       3.854       3.940       4.005    
        4.075       4.125       4.129       4.114       4.101    
  10    2.976       2.991       3.022       3.070       3.137       3.224       3.333       3.469       3.576       3.641    
        3.700       3.741       3.759       3.761       3.760    
  11    2.590       2.600       2.621       2.654       2.700       2.763       2.851       2.991       3.176       3.257    
        3.317       3.357       3.379       3.389       3.392    
  12    2.332       2.338       2.351       2.372       2.402       2.444       2.503       2.589       2.767       2.872    
        2.932       2.969       2.990       3.000       3.005    
  13    2.234       2.239       2.248       2.264       2.285       2.315       2.354       2.401       2.460       2.516    
        2.554       2.578       2.593       2.601       2.605    
  14    2.128       2.131       2.136       2.145       2.157       2.172       2.191       2.210       2.219       2.238    
        2.254       2.265       2.272       2.276       2.278    
  15    2.018       2.018       2.019       2.021       2.022       2.024       2.025       2.026       2.027       2.028    
        2.029       2.030       2.030       2.030       2.030    
  16    2.080       2.082       2.087       2.092       2.098       2.102       2.099       2.094       2.089       2.084    
        2.081       2.078       2.076       2.075       2.075    
  17    2.137       2.141       2.149       2.161       2.174       2.182       2.173       2.160       2.147       2.136    
        2.128       2.122       2.119       2.116       2.115    
  18    2.185       2.191       2.203       2.222       2.248       2.274       2.246       2.218       2.196       2.180    
        2.168       2.159       2.154       2.150       2.148    
  19    2.219       2.226       2.242       2.269       2.315       2.411       2.312       2.263       2.233       2.211    
        2.196       2.186       2.179       2.174       2.172    
  20    2.236       2.244       2.261       2.287       2.322       2.354       2.319       2.281       2.250       2.227    
        2.211       2.199       2.192       2.187       2.184    

 HEAD WILL BE SAVED ON UNIT   51 AT END OF TIME STEP   42, STRESS PERIOD    3

 DRAWDOWN WILL BE SAVED ON UNIT   52 AT END OF TIME STEP   42, STRESS PERIOD    3
1
  VOLUMETRIC BUDGET FOR ENTIRE MODEL AT END OF TIME STEP   42, STRESS PERIOD   3
  ------------------------------------------------------------------------------

     CUMULATIVE VOLUMES      L**3       RATES FOR THIS TIME STEP      L**3/T
     ------------------                 ------------------------

           IN:                                      IN:
           ---                                      ---
             STORAGE =      113043.9844               STORAGE =         924.5859
       CONSTANT HEAD =       69797.2656         CONSTANT HEAD =           0.0000
               WELLS =       45800.0000                 WELLS =         600.0000
       RIVER LEAKAGE =      211534.9844         RIVER LEAKAGE =           0.0000

            TOTAL IN =      440176.2500              TOTAL IN =        1524.5859

          OUT:                                     OUT:
          ----                                     ----
             STORAGE =      247768.9688               STORAGE =           0.0000
       CONSTANT HEAD =        8423.5439         CONSTANT HEAD =         481.6908
               WELLS =       59800.0000                 WELLS =         100.0000
       RIVER LEAKAGE =      124183.7422         RIVER LEAKAGE =         942.8968

           TOTAL OUT =      440176.2500             TOTAL OUT =        1524.5876

            IN - OUT =           0.0000              IN - OUT =      -1.7090E-03

 PERCENT DISCREPANCY =           0.00     PERCENT DISCREPANCY =          -0.00






         TIME SUMMARY AT END OF TIME STEP   42 IN STRESS PERIOD    3
                    SECONDS     MINUTES      HOURS       DAYS        YEARS
                    -----------------------------------------------------------
   TIME STEP LENGTH  86400.      1440.0      24.000      1.0000     2.73785E-03
 STRESS PERIOD TIME 3.62880E+06  60480.      1008.0      42.000     0.11499    
         TOTAL TIME 1.23552E+07 2.05920E+05  3432.0      143.00     0.39151    
1
 
 SOLVING FOR HEAD 

 OUTPUT CONTROL FOR STRESS PERIOD    3   TIME STEP   43
    SAVE HEAD FOR ALL LAYERS
    SAVE DRAWDOWN FOR ALL LAYERS
    SAVE BUDGET
    PRINT HEAD FOR ALL LAYERS
    PRINT BUDGET
 UBDSV1 SAVING "         STORAGE" ON UNIT   1 AT TIME STEP 43, STRESS PERIOD   3
 UBDSV2 SAVING "   CONSTANT HEAD" ON UNIT   1 AT TIME STEP 43, STRESS PERIOD   3
 UBDSV1 SAVING "FLOW RIGHT FACE " ON UNIT   1 AT TIME STEP 43, STRESS PERIOD   3
 UBDSV1 SAVING "FLOW FRONT FACE " ON UNIT   1 AT TIME STEP 43, STRESS PERIOD   3
1
              HEAD IN LAYER   1 AT END OF TIME STEP  43 IN STRESS PERIOD    3
  ---------------------------------------------------------------------------

            1           2           3           4           5           6           7           8           9          10
           11          12          13          14          15
 ........................................................................................................................
   1    3.850       3.850       3.850       3.850       3.850       3.850       3.850       3.850       3.850       3.850    
        3.850       3.850       3.850       3.850       3.850    
   2    4.061       4.047       4.024       4.014       4.069       4.133       4.183       4.202       4.178       4.185    
        4.198       4.207       4.204       4.196       4.189    
   3    4.110       4.078       4.011       3.933       4.097       4.248       4.356       4.418       4.419       4.445    
        4.483       4.508       4.496       4.471       4.455    
   4    4.070       4.021       3.879       3.478       4.002       4.263       4.427       4.538       4.581       4.639    
        4.723       4.789       4.744       4.683       4.647    
   5    3.995       3.970       3.917       3.866       4.067       4.266       4.435       4.577       4.658       4.763    
        4.936       5.134       4.965       4.824       4.755    
   6    3.891       3.889       3.893       3.929       4.057       4.214       4.373       4.528       4.634       4.779    
        5.086       5.842       5.123       4.856       4.755    
   7    3.745       3.757       3.786       3.847       3.953       4.087       4.233       4.382       4.484       4.600    
        4.784       4.994       4.827       4.688       4.619    
   8    3.547       3.565       3.602       3.667       3.761       3.878       4.010       4.149       4.238       4.320    
        4.425       4.508       4.474       4.418       4.384    
   9    3.289       3.307       3.344       3.402       3.484       3.587       3.707       3.838       3.924       3.989    
        4.059       4.109       4.113       4.097       4.084    
  10    2.967       2.981       3.012       3.059       3.126       3.212       3.320       3.456       3.562       3.627    
        3.686       3.727       3.745       3.747       3.745    
  11    2.583       2.593       2.614       2.646       2.692       2.754       2.842       2.981       3.165       3.245    
        3.305       3.345       3.367       3.377       3.380    
  12    2.327       2.334       2.347       2.367       2.397       2.439       2.498       2.583       2.759       2.864    
        2.923       2.960       2.981       2.991       2.996    
  13    2.231       2.235       2.245       2.260       2.282       2.311       2.350       2.396       2.455       2.511    
        2.549       2.573       2.588       2.596       2.599    
  14    2.127       2.129       2.135       2.143       2.155       2.170       2.189       2.208       2.217       2.235    
        2.251       2.262       2.269       2.273       2.275    
  15    2.018       2.018       2.019       2.020       2.022       2.023       2.025       2.026       2.026       2.027    
        2.028       2.029       2.030       2.030       2.030    
  16    2.077       2.079       2.084       2.089       2.095       2.099       2.096       2.091       2.086       2.081    
        2.078       2.075       2.073       2.072       2.071    
  17    2.132       2.136       2.144       2.155       2.168       2.177       2.168       2.154       2.141       2.131    
        2.123       2.117       2.113       2.111       2.109    
  18    2.177       2.183       2.196       2.215       2.241       2.267       2.239       2.211       2.189       2.172    
        2.160       2.152       2.146       2.142       2.141    
  19    2.210       2.218       2.233       2.260       2.306       2.403       2.304       2.254       2.224       2.202    
        2.187       2.177       2.170       2.165       2.163    
  20    2.227       2.235       2.252       2.278       2.312       2.345       2.309       2.271       2.241       2.218    
        2.201       2.190       2.182       2.177       2.175    

 HEAD WILL BE SAVED ON UNIT   51 AT END OF TIME STEP   43, STRESS PERIOD    3

 DRAWDOWN WILL BE SAVED ON UNIT   52 AT END OF TIME STEP   43, STRESS PERIOD    3
1
  VOLUMETRIC BUDGET FOR ENTIRE MODEL AT END OF TIME STEP   43, STRESS PERIOD   3
  ------------------------------------------------------------------------------

     CUMULATIVE VOLUMES      L**3       RATES FOR THIS TIME STEP      L**3/T
     ------------------                 ------------------------

           IN:                                      IN:
           ---                                      ---
             STORAGE =      113963.2891               STORAGE =         919.3024
       CONSTANT HEAD =       69797.2656         CONSTANT HEAD =           0.0000
               WELLS =       46400.0000                 WELLS =         600.0000
       RIVER LEAKAGE =      211534.9844         RIVER LEAKAGE =           0.0000

            TOTAL IN =      441695.5625              TOTAL IN =        1519.3024

          OUT:                                     OUT:
          ----                                     ----
             STORAGE =      247768.9688               STORAGE =           0.0000
       CONSTANT HEAD =        8917.7871         CONSTANT HEAD =         494.2433
               WELLS =       59900.0000                 WELLS =         100.0000
       RIVER LEAKAGE =      125108.8047         RIVER LEAKAGE =         925.0594

           TOTAL OUT =      441695.5625             TOTAL OUT =        1519.3027

            IN - OUT =           0.0000              IN - OUT =      -3.6621E-04

 PERCENT DISCREPANCY =           0.00     PERCENT DISCREPANCY =          -0.00






         TIME SUMMARY AT END OF TIME STEP   43 IN STRESS PERIOD    3
                    SECONDS     MINUTES      HOURS       DAYS        YEARS
                    -----------------------------------------------------------
   TIME STEP LENGTH  86400.      1440.0      24.000      1.0000     2.73785E-03
 STRESS PERIOD TIME 3.71520E+06  61920.      1032.0      43.000     0.11773    
         TOTAL TIME 1.24416E+07 2.07360E+05  3456.0      144.00     0.39425    
1
 
 SOLVING FOR HEAD 

 OUTPUT CONTROL FOR STRESS PERIOD    3   TIME STEP   44
    SAVE HEAD FOR ALL LAYERS
    SAVE DRAWDOWN FOR ALL LAYERS
    SAVE BUDGET
    PRINT HEAD FOR ALL LAYERS
    PRINT BUDGET
 UBDSV1 SAVING "         STORAGE" ON UNIT   1 AT TIME STEP 44, STRESS PERIOD   3
 UBDSV2 SAVING "   CONSTANT HEAD" ON UNIT   1 AT TIME STEP 44, STRESS PERIOD   3
 UBDSV1 SAVING "FLOW RIGHT FACE " ON UNIT   1 AT TIME STEP 44, STRESS PERIOD   3
 UBDSV1 SAVING "FLOW FRONT FACE " ON UNIT   1 AT TIME STEP 44, STRESS PERIOD   3
1
              HEAD IN LAYER   1 AT END OF TIME STEP  44 IN STRESS PERIOD    3
  ---------------------------------------------------------------------------

            1           2           3           4           5           6           7           8           9          10
           11          12          13          14          15
 ........................................................................................................................
   1    3.800       3.800       3.800       3.800       3.800       3.800       3.800       3.800       3.800       3.800    
        3.800       3.800       3.800       3.800       3.800    
   2    4.023       4.009       3.986       3.975       4.029       4.093       4.142       4.161       4.135       4.142    
        4.155       4.164       4.161       4.153       4.146    
   3    4.083       4.051       3.983       3.904       4.067       4.217       4.324       4.384       4.384       4.409    
        4.446       4.471       4.460       4.435       4.418    
   4    4.051       4.002       3.860       3.457       3.980       4.239       4.401       4.510       4.551       4.609    
        4.693       4.759       4.715       4.653       4.616    
   5    3.983       3.957       3.903       3.850       4.050       4.247       4.414       4.553       4.633       4.737    
        4.911       5.109       4.940       4.799       4.729    
   6    3.881       3.878       3.882       3.917       4.043       4.198       4.355       4.508       4.612       4.757    
        5.064       5.821       5.102       4.834       4.732    
   7    3.736       3.747       3.776       3.835       3.940       4.072       4.216       4.364       4.464       4.580    
        4.765       4.978       4.809       4.668       4.599    
   8    3.538       3.555       3.592       3.655       3.748       3.864       3.995       4.132       4.220       4.303    
        4.408       4.491       4.457       4.400       4.366    
   9    3.280       3.297       3.333       3.391       3.472       3.573       3.692       3.823       3.909       3.974    
        4.043       4.093       4.097       4.081       4.068    
  10    2.958       2.972       3.002       3.049       3.115       3.200       3.308       3.442       3.549       3.613    
        3.672       3.713       3.731       3.733       3.731    
  11    2.577       2.587       2.607       2.639       2.684       2.746       2.834       2.971       3.154       3.234    
        3.294       3.334       3.356       3.365       3.368    
  12    2.323       2.329       2.342       2.363       2.392       2.434       2.492       2.577       2.752       2.856    
        2.915       2.951       2.972       2.983       2.987    
  13    2.228       2.232       2.242       2.257       2.278       2.307       2.346       2.392       2.450       2.506    
        2.543       2.567       2.582       2.590       2.593    
  14    2.125       2.127       2.133       2.141       2.153       2.168       2.186       2.205       2.214       2.233    
        2.248       2.259       2.267       2.271       2.272    
  15    2.017       2.018       2.018       2.020       2.021       2.023       2.024       2.025       2.026       2.027    
        2.028       2.029       2.029       2.029       2.029    
  16    2.075       2.077       2.081       2.087       2.092       2.096       2.093       2.088       2.083       2.078    
        2.075       2.072       2.070       2.069       2.069    
  17    2.127       2.131       2.139       2.150       2.163       2.172       2.163       2.149       2.136       2.126    
        2.118       2.112       2.108       2.105       2.104    
  18    2.171       2.177       2.189       2.208       2.234       2.260       2.232       2.204       2.182       2.165    
        2.153       2.145       2.139       2.135       2.134    
  19    2.202       2.210       2.225       2.252       2.298       2.395       2.295       2.246       2.216       2.194    
        2.179       2.169       2.161       2.157       2.155    
  20    2.218       2.226       2.243       2.269       2.304       2.336       2.301       2.262       2.232       2.209    
        2.193       2.181       2.173       2.168       2.166    

 HEAD WILL BE SAVED ON UNIT   51 AT END OF TIME STEP   44, STRESS PERIOD    3

 DRAWDOWN WILL BE SAVED ON UNIT   52 AT END OF TIME STEP   44, STRESS PERIOD    3
1
  VOLUMETRIC BUDGET FOR ENTIRE MODEL AT END OF TIME STEP   44, STRESS PERIOD   3
  ------------------------------------------------------------------------------

     CUMULATIVE VOLUMES      L**3       RATES FOR THIS TIME STEP      L**3/T
     ------------------                 ------------------------

           IN:                                      IN:
           ---                                      ---
             STORAGE =      114878.0547               STORAGE =         914.7625
       CONSTANT HEAD =       69797.2656         CONSTANT HEAD =           0.0000
               WELLS =       47000.0000                 WELLS =         600.0000
       RIVER LEAKAGE =      211534.9844         RIVER LEAKAGE =           0.0000

            TOTAL IN =      443210.3125              TOTAL IN =        1514.7625

          OUT:                                     OUT:
          ----                                     ----
             STORAGE =      247768.9688               STORAGE =           0.0000
       CONSTANT HEAD =        9424.2705         CONSTANT HEAD =         506.4832
               WELLS =       60000.0000                 WELLS =         100.0000
       RIVER LEAKAGE =      126017.0859         RIVER LEAKAGE =         908.2808

           TOTAL OUT =      443210.3438             TOTAL OUT =        1514.7640

            IN - OUT =      -3.1250E-02              IN - OUT =      -1.5869E-03

 PERCENT DISCREPANCY =          -0.00     PERCENT DISCREPANCY =          -0.00






         TIME SUMMARY AT END OF TIME STEP   44 IN STRESS PERIOD    3
                    SECONDS     MINUTES      HOURS       DAYS        YEARS
                    -----------------------------------------------------------
   TIME STEP LENGTH  86400.      1440.0      24.000      1.0000     2.73785E-03
 STRESS PERIOD TIME 3.80160E+06  63360.      1056.0      44.000     0.12047    
         TOTAL TIME 1.25280E+07 2.08800E+05  3480.0      145.00     0.39699    
1
 
 SOLVING FOR HEAD 

 OUTPUT CONTROL FOR STRESS PERIOD    3   TIME STEP   45
    SAVE HEAD FOR ALL LAYERS
    SAVE DRAWDOWN FOR ALL LAYERS
    SAVE BUDGET
    PRINT HEAD FOR ALL LAYERS
    PRINT BUDGET
 UBDSV1 SAVING "         STORAGE" ON UNIT   1 AT TIME STEP 45, STRESS PERIOD   3
 UBDSV2 SAVING "   CONSTANT HEAD" ON UNIT   1 AT TIME STEP 45, STRESS PERIOD   3
 UBDSV1 SAVING "FLOW RIGHT FACE " ON UNIT   1 AT TIME STEP 45, STRESS PERIOD   3
 UBDSV1 SAVING "FLOW FRONT FACE " ON UNIT   1 AT TIME STEP 45, STRESS PERIOD   3
1
              HEAD IN LAYER   1 AT END OF TIME STEP  45 IN STRESS PERIOD    3
  ---------------------------------------------------------------------------

            1           2           3           4           5           6           7           8           9          10
           11          12          13          14          15
 ........................................................................................................................
   1    3.750       3.750       3.750       3.750       3.750       3.750       3.750       3.750       3.750       3.750    
        3.750       3.750       3.750       3.750       3.750    
   2    3.985       3.971       3.948       3.936       3.990       4.053       4.101       4.119       4.092       4.099    
        4.112       4.121       4.118       4.109       4.103    
   3    4.056       4.023       3.954       3.875       4.037       4.185       4.291       4.349       4.348       4.373    
        4.410       4.435       4.423       4.398       4.381    
   4    4.032       3.982       3.839       3.436       3.957       4.215       4.375       4.481       4.520       4.579    
        4.662       4.728       4.684       4.622       4.584    
   5    3.969       3.943       3.889       3.834       4.032       4.228       4.392       4.529       4.607       4.711    
        4.885       5.082       4.915       4.773       4.702    
   6    3.871       3.868       3.870       3.904       4.028       4.181       4.336       4.487       4.590       4.735    
        5.042       5.799       5.079       4.811       4.709    
   7    3.727       3.738       3.766       3.824       3.926       4.057       4.199       4.345       4.445       4.561    
        4.746       4.960       4.790       4.648       4.579    
   8    3.529       3.545       3.582       3.644       3.735       3.850       3.979       4.115       4.202       4.285    
        4.391       4.474       4.439       4.382       4.348    
   9    3.270       3.287       3.323       3.380       3.460       3.560       3.678       3.808       3.893       3.958    
        4.028       4.078       4.082       4.066       4.052    
  10    2.949       2.963       2.993       3.040       3.104       3.189       3.296       3.429       3.536       3.600    
        3.658       3.700       3.717       3.719       3.717    
  11    2.571       2.580       2.600       2.632       2.677       2.738       2.825       2.962       3.144       3.223    
        3.283       3.322       3.344       3.354       3.357    
  12    2.319       2.325       2.338       2.358       2.388       2.429       2.487       2.571       2.745       2.848    
        2.907       2.943       2.963       2.974       2.978    
  13    2.225       2.229       2.239       2.254       2.275       2.304       2.342       2.388       2.445       2.501    
        2.538       2.562       2.577       2.585       2.588    
  14    2.123       2.126       2.131       2.139       2.151       2.166       2.184       2.203       2.212       2.230    
        2.246       2.257       2.264       2.268       2.270    
  15    2.017       2.017       2.018       2.019       2.021       2.022       2.024       2.025       2.025       2.026    
        2.027       2.028       2.029       2.029       2.029    
  16    2.072       2.074       2.078       2.084       2.090       2.093       2.091       2.086       2.080       2.075    
        2.072       2.069       2.068       2.066       2.066    
  17    2.122       2.126       2.134       2.146       2.159       2.167       2.158       2.144       2.131       2.121    
        2.113       2.107       2.103       2.101       2.099    
  18    2.165       2.170       2.183       2.202       2.228       2.254       2.226       2.198       2.176       2.159    
        2.147       2.138       2.133       2.129       2.127    
  19    2.195       2.202       2.218       2.245       2.291       2.387       2.288       2.239       2.208       2.187    
        2.172       2.161       2.154       2.149       2.147    
  20    2.210       2.218       2.235       2.261       2.296       2.328       2.293       2.254       2.224       2.201    
        2.184       2.173       2.165       2.160       2.157    

 HEAD WILL BE SAVED ON UNIT   51 AT END OF TIME STEP   45, STRESS PERIOD    3

 DRAWDOWN WILL BE SAVED ON UNIT   52 AT END OF TIME STEP   45, STRESS PERIOD    3
1
  VOLUMETRIC BUDGET FOR ENTIRE MODEL AT END OF TIME STEP   45, STRESS PERIOD   3
  ------------------------------------------------------------------------------

     CUMULATIVE VOLUMES      L**3       RATES FOR THIS TIME STEP      L**3/T
     ------------------                 ------------------------

           IN:                                      IN:
           ---                                      ---
             STORAGE =      115788.9375               STORAGE =         910.8835
       CONSTANT HEAD =       69797.2656         CONSTANT HEAD =           0.0000
               WELLS =       47600.0000                 WELLS =         600.0000
       RIVER LEAKAGE =      211534.9844         RIVER LEAKAGE =           0.0000

            TOTAL IN =      444721.1875              TOTAL IN =        1510.8835

          OUT:                                     OUT:
          ----                                     ----
             STORAGE =      247768.9688               STORAGE =           0.0000
       CONSTANT HEAD =        9942.6797         CONSTANT HEAD =         518.4089
               WELLS =       60100.0000                 WELLS =         100.0000
       RIVER LEAKAGE =      126909.5625         RIVER LEAKAGE =         892.4751

           TOTAL OUT =      444721.2188             TOTAL OUT =        1510.8840

            IN - OUT =      -3.1250E-02              IN - OUT =      -4.8828E-04

 PERCENT DISCREPANCY =          -0.00     PERCENT DISCREPANCY =          -0.00






         TIME SUMMARY AT END OF TIME STEP   45 IN STRESS PERIOD    3
                    SECONDS     MINUTES      HOURS       DAYS        YEARS
                    -----------------------------------------------------------
   TIME STEP LENGTH  86400.      1440.0      24.000      1.0000     2.73785E-03
 STRESS PERIOD TIME 3.88800E+06  64800.      1080.0      45.000     0.12320    
         TOTAL TIME 1.26144E+07 2.10240E+05  3504.0      146.00     0.39973    
1
 
 SOLVING FOR HEAD 

 OUTPUT CONTROL FOR STRESS PERIOD    3   TIME STEP   46
    SAVE HEAD FOR ALL LAYERS
    SAVE DRAWDOWN FOR ALL LAYERS
    SAVE BUDGET
    PRINT HEAD FOR ALL LAYERS
    PRINT BUDGET
 UBDSV1 SAVING "         STORAGE" ON UNIT   1 AT TIME STEP 46, STRESS PERIOD   3
 UBDSV2 SAVING "   CONSTANT HEAD" ON UNIT   1 AT TIME STEP 46, STRESS PERIOD   3
 UBDSV1 SAVING "FLOW RIGHT FACE " ON UNIT   1 AT TIME STEP 46, STRESS PERIOD   3
 UBDSV1 SAVING "FLOW FRONT FACE " ON UNIT   1 AT TIME STEP 46, STRESS PERIOD   3
1
              HEAD IN LAYER   1 AT END OF TIME STEP  46 IN STRESS PERIOD    3
  ---------------------------------------------------------------------------

            1           2           3           4           5           6           7           8           9          10
           11          12          13          14          15
 ........................................................................................................................
   1    3.700       3.700       3.700       3.700       3.700       3.700       3.700       3.700       3.700       3.700    
        3.700       3.700       3.700       3.700       3.700    
   2    3.946       3.932       3.909       3.897       3.950       4.013       4.060       4.077       4.049       4.056    
        4.069       4.078       4.075       4.066       4.060    
   3    4.028       3.995       3.925       3.845       4.006       4.153       4.257       4.314       4.311       4.336    
        4.373       4.398       4.386       4.361       4.344    
   4    4.012       3.962       3.818       3.414       3.934       4.190       4.348       4.452       4.490       4.547    
        4.631       4.697       4.652       4.590       4.553    
   5    3.955       3.929       3.873       3.818       4.014       4.208       4.370       4.505       4.581       4.685    
        4.858       5.056       4.888       4.746       4.675    
   6    3.860       3.857       3.858       3.891       4.013       4.165       4.317       4.466       4.567       4.712    
        5.019       5.776       5.056       4.788       4.686    
   7    3.717       3.728       3.755       3.812       3.913       4.041       4.182       4.327       4.425       4.541    
        4.727       4.940       4.770       4.628       4.558    
   8    3.520       3.536       3.571       3.632       3.722       3.835       3.963       4.098       4.185       4.268    
        4.373       4.457       4.422       4.364       4.329    
   9    3.261       3.278       3.313       3.369       3.448       3.547       3.664       3.793       3.878       3.943    
        4.012       4.062       4.066       4.050       4.036    
  10    2.941       2.955       2.984       3.030       3.094       3.178       3.284       3.417       3.523       3.587    
        3.645       3.686       3.704       3.706       3.704    
  11    2.565       2.574       2.594       2.625       2.670       2.731       2.817       2.953       3.134       3.213    
        3.272       3.311       3.333       3.343       3.345    
  12    2.315       2.322       2.334       2.354       2.383       2.424       2.482       2.565       2.738       2.840    
        2.899       2.935       2.955       2.966       2.970    
  13    2.222       2.227       2.236       2.251       2.272       2.300       2.338       2.384       2.441       2.496    
        2.533       2.557       2.572       2.579       2.583    
  14    2.121       2.124       2.129       2.137       2.149       2.164       2.182       2.201       2.210       2.228    
        2.243       2.254       2.261       2.266       2.267    
  15    2.017       2.017       2.018       2.019       2.020       2.022       2.023       2.024       2.025       2.026    
        2.027       2.028       2.028       2.028       2.029    
  16    2.070       2.072       2.076       2.082       2.087       2.091       2.088       2.083       2.078       2.073    
        2.069       2.067       2.065       2.064       2.063    
  17    2.118       2.122       2.130       2.142       2.154       2.163       2.154       2.140       2.127       2.116    
        2.108       2.103       2.099       2.096       2.095    
  18    2.159       2.165       2.177       2.196       2.222       2.248       2.220       2.192       2.170       2.153    
        2.141       2.132       2.127       2.123       2.121    
  19    2.188       2.195       2.211       2.238       2.284       2.380       2.281       2.232       2.201       2.180    
        2.164       2.154       2.147       2.142       2.140    
  20    2.203       2.211       2.228       2.254       2.288       2.320       2.285       2.247       2.216       2.193    
        2.177       2.165       2.157       2.152       2.150    

 HEAD WILL BE SAVED ON UNIT   51 AT END OF TIME STEP   46, STRESS PERIOD    3

 DRAWDOWN WILL BE SAVED ON UNIT   52 AT END OF TIME STEP   46, STRESS PERIOD    3
1
  VOLUMETRIC BUDGET FOR ENTIRE MODEL AT END OF TIME STEP   46, STRESS PERIOD   3
  ------------------------------------------------------------------------------

     CUMULATIVE VOLUMES      L**3       RATES FOR THIS TIME STEP      L**3/T
     ------------------                 ------------------------

           IN:                                      IN:
           ---                                      ---
             STORAGE =      116696.5312               STORAGE =         907.5911
       CONSTANT HEAD =       69797.2656         CONSTANT HEAD =           0.0000
               WELLS =       48200.0000                 WELLS =         600.0000
       RIVER LEAKAGE =      211534.9844         RIVER LEAKAGE =           0.0000

            TOTAL IN =      446228.7812              TOTAL IN =        1507.5911

          OUT:                                     OUT:
          ----                                     ----
             STORAGE =      247768.9688               STORAGE =           0.0000
       CONSTANT HEAD =       10472.7031         CONSTANT HEAD =         530.0230
               WELLS =       60200.0000                 WELLS =         100.0000
       RIVER LEAKAGE =      127787.1328         RIVER LEAKAGE =         877.5670

           TOTAL OUT =      446228.8125             TOTAL OUT =        1507.5900

            IN - OUT =      -3.1250E-02              IN - OUT =       1.0986E-03

 PERCENT DISCREPANCY =          -0.00     PERCENT DISCREPANCY =           0.00






         TIME SUMMARY AT END OF TIME STEP   46 IN STRESS PERIOD    3
                    SECONDS     MINUTES      HOURS       DAYS        YEARS
                    -----------------------------------------------------------
   TIME STEP LENGTH  86400.      1440.0      24.000      1.0000     2.73785E-03
 STRESS PERIOD TIME 3.97440E+06  66240.      1104.0      46.000     0.12594    
         TOTAL TIME 1.27008E+07 2.11680E+05  3528.0      147.00     0.40246    
1
 
 SOLVING FOR HEAD 

 OUTPUT CONTROL FOR STRESS PERIOD    3   TIME STEP   47
    SAVE HEAD FOR ALL LAYERS
    SAVE DRAWDOWN FOR ALL LAYERS
    SAVE BUDGET
    PRINT HEAD FOR ALL LAYERS
    PRINT BUDGET
 UBDSV1 SAVING "         STORAGE" ON UNIT   1 AT TIME STEP 47, STRESS PERIOD   3
 UBDSV2 SAVING "   CONSTANT HEAD" ON UNIT   1 AT TIME STEP 47, STRESS PERIOD   3
 UBDSV1 SAVING "FLOW RIGHT FACE " ON UNIT   1 AT TIME STEP 47, STRESS PERIOD   3
 UBDSV1 SAVING "FLOW FRONT FACE " ON UNIT   1 AT TIME STEP 47, STRESS PERIOD   3
1
              HEAD IN LAYER   1 AT END OF TIME STEP  47 IN STRESS PERIOD    3
  ---------------------------------------------------------------------------

            1           2           3           4           5           6           7           8           9          10
           11          12          13          14          15
 ........................................................................................................................
   1    3.650       3.650       3.650       3.650       3.650       3.650       3.650       3.650       3.650       3.650    
        3.650       3.650       3.650       3.650       3.650    
   2    3.907       3.893       3.870       3.857       3.910       3.972       4.018       4.034       4.006       4.012    
        4.025       4.034       4.031       4.023       4.016    
   3    3.999       3.966       3.896       3.815       3.975       4.121       4.224       4.279       4.275       4.299    
        4.336       4.361       4.349       4.324       4.306    
   4    3.992       3.941       3.797       3.391       3.910       4.164       4.321       4.423       4.458       4.516    
        4.599       4.665       4.621       4.558       4.521    
   5    3.941       3.913       3.857       3.801       3.996       4.187       4.348       4.480       4.555       4.658    
        4.831       5.028       4.861       4.718       4.648    
   6    3.849       3.845       3.845       3.877       3.998       4.147       4.298       4.445       4.545       4.689    
        4.997       5.753       5.033       4.764       4.662    
   7    3.708       3.718       3.744       3.799       3.899       4.026       4.165       4.308       4.405       4.521    
        4.707       4.920       4.749       4.608       4.538    
   8    3.510       3.526       3.561       3.621       3.709       3.821       3.948       4.081       4.168       4.250    
        4.356       4.439       4.404       4.346       4.311    
   9    3.252       3.268       3.303       3.358       3.436       3.534       3.650       3.778       3.863       3.927    
        3.997       4.047       4.050       4.034       4.021    
  10    2.933       2.947       2.975       3.021       3.084       3.167       3.272       3.405       3.510       3.574    
        3.632       3.673       3.690       3.692       3.690    
  11    2.559       2.569       2.588       2.619       2.663       2.723       2.809       2.944       3.124       3.203    
        3.261       3.301       3.322       3.332       3.334    
  12    2.312       2.318       2.330       2.350       2.379       2.420       2.477       2.560       2.731       2.833    
        2.891       2.927       2.947       2.958       2.962    
  13    2.219       2.224       2.233       2.248       2.269       2.297       2.334       2.380       2.437       2.491    
        2.528       2.552       2.566       2.574       2.578    
  14    2.120       2.122       2.128       2.136       2.147       2.162       2.180       2.199       2.208       2.226    
        2.241       2.252       2.259       2.263       2.265    
  15    2.016       2.017       2.017       2.019       2.020       2.022       2.023       2.024       2.025       2.026    
        2.027       2.027       2.028       2.028       2.028    
  16    2.067       2.070       2.074       2.079       2.085       2.088       2.086       2.081       2.075       2.071    
        2.067       2.064       2.063       2.061       2.061    
  17    2.114       2.118       2.126       2.138       2.150       2.159       2.150       2.136       2.123       2.112    
        2.104       2.099       2.095       2.092       2.091    
  18    2.153       2.159       2.171       2.190       2.216       2.242       2.215       2.186       2.164       2.148    
        2.136       2.127       2.121       2.117       2.116    
  19    2.181       2.189       2.205       2.231       2.277       2.374       2.275       2.225       2.194       2.173    
        2.158       2.147       2.140       2.135       2.133    
  20    2.196       2.204       2.221       2.247       2.281       2.313       2.278       2.240       2.209       2.186    
        2.170       2.158       2.150       2.145       2.143    

 HEAD WILL BE SAVED ON UNIT   51 AT END OF TIME STEP   47, STRESS PERIOD    3

 DRAWDOWN WILL BE SAVED ON UNIT   52 AT END OF TIME STEP   47, STRESS PERIOD    3
1
  VOLUMETRIC BUDGET FOR ENTIRE MODEL AT END OF TIME STEP   47, STRESS PERIOD   3
  ------------------------------------------------------------------------------

     CUMULATIVE VOLUMES      L**3       RATES FOR THIS TIME STEP      L**3/T
     ------------------                 ------------------------

           IN:                                      IN:
           ---                                      ---
             STORAGE =      117601.3516               STORAGE =         904.8237
       CONSTANT HEAD =       69797.2656         CONSTANT HEAD =           0.0000
               WELLS =       48800.0000                 WELLS =         600.0000
       RIVER LEAKAGE =      211534.9844         RIVER LEAKAGE =           0.0000

            TOTAL IN =      447733.6250              TOTAL IN =        1504.8237

          OUT:                                     OUT:
          ----                                     ----
             STORAGE =      247768.9688               STORAGE =           0.0000
       CONSTANT HEAD =       11014.0420         CONSTANT HEAD =         541.3389
               WELLS =       60300.0000                 WELLS =         100.0000
       RIVER LEAKAGE =      128650.6172         RIVER LEAKAGE =         863.4855

           TOTAL OUT =      447733.6250             TOTAL OUT =        1504.8245

            IN - OUT =           0.0000              IN - OUT =      -7.3242E-04

 PERCENT DISCREPANCY =           0.00     PERCENT DISCREPANCY =          -0.00






         TIME SUMMARY AT END OF TIME STEP   47 IN STRESS PERIOD    3
                    SECONDS     MINUTES      HOURS       DAYS        YEARS
                    -----------------------------------------------------------
   TIME STEP LENGTH  86400.      1440.0      24.000      1.0000     2.73785E-03
 STRESS PERIOD TIME 4.06080E+06  67680.      1128.0      47.000     0.12868    
         TOTAL TIME 1.27872E+07 2.13120E+05  3552.0      148.00     0.40520    
1
 
 SOLVING FOR HEAD 

 OUTPUT CONTROL FOR STRESS PERIOD    3   TIME STEP   48
    SAVE HEAD FOR ALL LAYERS
    SAVE DRAWDOWN FOR ALL LAYERS
    SAVE BUDGET
    PRINT HEAD FOR ALL LAYERS
    PRINT BUDGET
 UBDSV1 SAVING "         STORAGE" ON UNIT   1 AT TIME STEP 48, STRESS PERIOD   3
 UBDSV2 SAVING "   CONSTANT HEAD" ON UNIT   1 AT TIME STEP 48, STRESS PERIOD   3
 UBDSV1 SAVING "FLOW RIGHT FACE " ON UNIT   1 AT TIME STEP 48, STRESS PERIOD   3
 UBDSV1 SAVING "FLOW FRONT FACE " ON UNIT   1 AT TIME STEP 48, STRESS PERIOD   3
1
              HEAD IN LAYER   1 AT END OF TIME STEP  48 IN STRESS PERIOD    3
  ---------------------------------------------------------------------------

            1           2           3           4           5           6           7           8           9          10
           11          12          13          14          15
 ........................................................................................................................
   1    3.600       3.600       3.600       3.600       3.600       3.600       3.600       3.600       3.600       3.600    
        3.600       3.600       3.600       3.600       3.600    
   2    3.869       3.854       3.830       3.818       3.870       3.931       3.977       3.992       3.963       3.969    
        3.982       3.991       3.988       3.979       3.972    
   3    3.970       3.937       3.866       3.785       3.944       4.089       4.190       4.244       4.238       4.262    
        4.298       4.323       4.311       4.286       4.269    
   4    3.971       3.920       3.775       3.368       3.886       4.139       4.294       4.393       4.427       4.484    
        4.568       4.633       4.588       4.526       4.488    
   5    3.925       3.898       3.841       3.783       3.977       4.167       4.325       4.455       4.528       4.632    
        4.805       5.002       4.833       4.691       4.620    
   6    3.837       3.833       3.832       3.863       3.982       4.130       4.279       4.423       4.522       4.667    
        4.980       5.731       5.009       4.741       4.638    
   7    3.697       3.707       3.732       3.787       3.885       4.011       4.148       4.289       4.386       4.501    
        4.688       4.901       4.729       4.587       4.517    
   8    3.501       3.516       3.550       3.609       3.697       3.807       3.932       4.064       4.150       4.233    
        4.338       4.422       4.386       4.328       4.293    
   9    3.243       3.259       3.293       3.347       3.424       3.521       3.636       3.763       3.848       3.912    
        3.982       4.031       4.035       4.018       4.005    
  10    2.925       2.939       2.967       3.012       3.074       3.156       3.261       3.392       3.498       3.561    
        3.619       3.660       3.677       3.679       3.677    
  11    2.554       2.563       2.582       2.613       2.656       2.716       2.801       2.935       3.114       3.193    
        3.251       3.290       3.312       3.321       3.324    
  12    2.308       2.314       2.327       2.347       2.375       2.415       2.472       2.555       2.724       2.825    
        2.883       2.919       2.939       2.950       2.954    
  13    2.217       2.221       2.230       2.245       2.266       2.294       2.331       2.376       2.433       2.487    
        2.524       2.547       2.562       2.569       2.573    
  14    2.118       2.121       2.126       2.134       2.145       2.160       2.178       2.197       2.206       2.223    
        2.239       2.250       2.257       2.261       2.262    
  15    2.016       2.016       2.017       2.018       2.020       2.021       2.023       2.024       2.024       2.025    
        2.026       2.027       2.027       2.028       2.028    
  16    2.065       2.067       2.072       2.077       2.083       2.086       2.084       2.079       2.073       2.069    
        2.065       2.062       2.060       2.059       2.059    
  17    2.111       2.115       2.123       2.134       2.147       2.155       2.146       2.132       2.119       2.109    
        2.101       2.095       2.091       2.088       2.087    
  18    2.148       2.154       2.166       2.186       2.211       2.237       2.210       2.181       2.159       2.143    
        2.130       2.122       2.116       2.112       2.110    
  19    2.176       2.183       2.199       2.225       2.271       2.368       2.269       2.219       2.188       2.167    
        2.152       2.141       2.134       2.129       2.127    
  20    2.190       2.198       2.214       2.240       2.275       2.307       2.272       2.233       2.203       2.180    
        2.163       2.151       2.143       2.138       2.136    

 HEAD WILL BE SAVED ON UNIT   51 AT END OF TIME STEP   48, STRESS PERIOD    3

 DRAWDOWN WILL BE SAVED ON UNIT   52 AT END OF TIME STEP   48, STRESS PERIOD    3
1
  VOLUMETRIC BUDGET FOR ENTIRE MODEL AT END OF TIME STEP   48, STRESS PERIOD   3
  ------------------------------------------------------------------------------

     CUMULATIVE VOLUMES      L**3       RATES FOR THIS TIME STEP      L**3/T
     ------------------                 ------------------------

           IN:                                      IN:
           ---                                      ---
             STORAGE =      118503.9062               STORAGE =         902.5540
       CONSTANT HEAD =       69797.2656         CONSTANT HEAD =           0.0000
               WELLS =       49400.0000                 WELLS =         600.0000
       RIVER LEAKAGE =      211534.9844         RIVER LEAKAGE =           0.0000

            TOTAL IN =      449236.1562              TOTAL IN =        1502.5540

          OUT:                                     OUT:
          ----                                     ----
             STORAGE =      247768.9688               STORAGE =           0.0000
       CONSTANT HEAD =       11566.4316         CONSTANT HEAD =         552.3897
               WELLS =       60400.0000                 WELLS =         100.0000
       RIVER LEAKAGE =      129500.7812         RIVER LEAKAGE =         850.1627

           TOTAL OUT =      449236.1875             TOTAL OUT =        1502.5524

            IN - OUT =      -3.1250E-02              IN - OUT =       1.5869E-03

 PERCENT DISCREPANCY =          -0.00     PERCENT DISCREPANCY =           0.00






         TIME SUMMARY AT END OF TIME STEP   48 IN STRESS PERIOD    3
                    SECONDS     MINUTES      HOURS       DAYS        YEARS
                    -----------------------------------------------------------
   TIME STEP LENGTH  86400.      1440.0      24.000      1.0000     2.73785E-03
 STRESS PERIOD TIME 4.14720E+06  69120.      1152.0      48.000     0.13142    
         TOTAL TIME 1.28736E+07 2.14560E+05  3576.0      149.00     0.40794    
1
 
 SOLVING FOR HEAD 

 OUTPUT CONTROL FOR STRESS PERIOD    3   TIME STEP   49
    SAVE HEAD FOR ALL LAYERS
    SAVE DRAWDOWN FOR ALL LAYERS
    SAVE BUDGET
    PRINT HEAD FOR ALL LAYERS
    PRINT BUDGET
 UBDSV1 SAVING "         STORAGE" ON UNIT   1 AT TIME STEP 49, STRESS PERIOD   3
 UBDSV2 SAVING "   CONSTANT HEAD" ON UNIT   1 AT TIME STEP 49, STRESS PERIOD   3
 UBDSV1 SAVING "FLOW RIGHT FACE " ON UNIT   1 AT TIME STEP 49, STRESS PERIOD   3
 UBDSV1 SAVING "FLOW FRONT FACE " ON UNIT   1 AT TIME STEP 49, STRESS PERIOD   3
1
              HEAD IN LAYER   1 AT END OF TIME STEP  49 IN STRESS PERIOD    3
  ---------------------------------------------------------------------------

            1           2           3           4           5           6           7           8           9          10
           11          12          13          14          15
 ........................................................................................................................
   1    3.550       3.550       3.550       3.550       3.550       3.550       3.550       3.550       3.550       3.550    
        3.550       3.550       3.550       3.550       3.550    
   2    3.829       3.815       3.791       3.778       3.830       3.891       3.935       3.949       3.920       3.926    
        3.938       3.947       3.944       3.935       3.929    
   3    3.941       3.907       3.836       3.754       3.912       4.056       4.156       4.208       4.201       4.225    
        4.261       4.286       4.274       4.248       4.231    
   4    3.949       3.898       3.752       3.344       3.861       4.112       4.266       4.363       4.396       4.453    
        4.537       4.603       4.557       4.494       4.456    
   5    3.910       3.882       3.824       3.765       3.957       4.145       4.302       4.430       4.502       4.605    
        4.781       4.983       4.808       4.663       4.592    
   6    3.825       3.820       3.819       3.848       3.966       4.112       4.259       4.402       4.500       4.645    
        4.960       5.712       4.991       4.718       4.614    
   7    3.687       3.696       3.721       3.774       3.871       3.995       4.130       4.270       4.366       4.482    
        4.669       4.882       4.710       4.566       4.496    
   8    3.491       3.506       3.540       3.597       3.684       3.793       3.917       4.048       4.133       4.215    
        4.321       4.404       4.368       4.310       4.275    
   9    3.234       3.250       3.283       3.337       3.413       3.509       3.622       3.749       3.833       3.897    
        3.966       4.016       4.019       4.003       3.989    
  10    2.917       2.931       2.959       3.003       3.065       3.146       3.250       3.381       3.485       3.548    
        3.606       3.647       3.664       3.666       3.663    
  11    2.548       2.557       2.577       2.607       2.650       2.709       2.794       2.927       3.105       3.183    
        3.241       3.280       3.301       3.310       3.313    
  12    2.305       2.311       2.323       2.343       2.371       2.411       2.467       2.549       2.718       2.818    
        2.876       2.911       2.931       2.942       2.946    
  13    2.214       2.219       2.228       2.242       2.263       2.291       2.328       2.373       2.429       2.483    
        2.519       2.542       2.557       2.564       2.568    
  14    2.117       2.120       2.125       2.133       2.144       2.158       2.176       2.195       2.204       2.221    
        2.237       2.247       2.254       2.258       2.260    
  15    2.016       2.016       2.017       2.018       2.019       2.021       2.022       2.023       2.024       2.025    
        2.026       2.027       2.027       2.027       2.027    
  16    2.063       2.066       2.070       2.075       2.081       2.084       2.082       2.077       2.071       2.067    
        2.063       2.060       2.058       2.057       2.057    
  17    2.107       2.111       2.119       2.130       2.143       2.152       2.143       2.129       2.116       2.105    
        2.097       2.091       2.087       2.085       2.084    
  18    2.144       2.150       2.162       2.181       2.207       2.233       2.205       2.177       2.154       2.138    
        2.126       2.117       2.111       2.107       2.106    
  19    2.170       2.178       2.193       2.220       2.266       2.363       2.263       2.214       2.183       2.161    
        2.146       2.136       2.128       2.124       2.122    
  20    2.184       2.192       2.208       2.234       2.269       2.301       2.266       2.227       2.197       2.174    
        2.157       2.145       2.137       2.132       2.130    

 HEAD WILL BE SAVED ON UNIT   51 AT END OF TIME STEP   49, STRESS PERIOD    3

 DRAWDOWN WILL BE SAVED ON UNIT   52 AT END OF TIME STEP   49, STRESS PERIOD    3
1
  VOLUMETRIC BUDGET FOR ENTIRE MODEL AT END OF TIME STEP   49, STRESS PERIOD   3
  ------------------------------------------------------------------------------

     CUMULATIVE VOLUMES      L**3       RATES FOR THIS TIME STEP      L**3/T
     ------------------                 ------------------------

           IN:                                      IN:
           ---                                      ---
             STORAGE =      119404.7188               STORAGE =         900.8100
       CONSTANT HEAD =       69797.2656         CONSTANT HEAD =           0.0000
               WELLS =       50000.0000                 WELLS =         600.0000
       RIVER LEAKAGE =      211534.9844         RIVER LEAKAGE =           0.0000

            TOTAL IN =      450736.9688              TOTAL IN =        1500.8101

          OUT:                                     OUT:
          ----                                     ----
             STORAGE =      247768.9688               STORAGE =           0.0000
       CONSTANT HEAD =       12129.7002         CONSTANT HEAD =         563.2683
               WELLS =       60500.0000                 WELLS =         100.0000
       RIVER LEAKAGE =      130338.3203         RIVER LEAKAGE =         837.5407

           TOTAL OUT =      450737.0000             TOTAL OUT =        1500.8091

            IN - OUT =      -3.1250E-02              IN - OUT =       9.7656E-04

 PERCENT DISCREPANCY =          -0.00     PERCENT DISCREPANCY =           0.00






         TIME SUMMARY AT END OF TIME STEP   49 IN STRESS PERIOD    3
                    SECONDS     MINUTES      HOURS       DAYS        YEARS
                    -----------------------------------------------------------
   TIME STEP LENGTH  86400.      1440.0      24.000      1.0000     2.73785E-03
 STRESS PERIOD TIME 4.23360E+06  70560.      1176.0      49.000     0.13415    
         TOTAL TIME 1.29600E+07 2.16000E+05  3600.0      150.00     0.41068    
1
 
 SOLVING FOR HEAD 

 OUTPUT CONTROL FOR STRESS PERIOD    3   TIME STEP   50
    SAVE HEAD FOR ALL LAYERS
    SAVE DRAWDOWN FOR ALL LAYERS
    SAVE BUDGET
    PRINT HEAD FOR ALL LAYERS
    PRINT BUDGET
 UBDSV1 SAVING "         STORAGE" ON UNIT   1 AT TIME STEP 50, STRESS PERIOD   3
 UBDSV2 SAVING "   CONSTANT HEAD" ON UNIT   1 AT TIME STEP 50, STRESS PERIOD   3
 UBDSV1 SAVING "FLOW RIGHT FACE " ON UNIT   1 AT TIME STEP 50, STRESS PERIOD   3
 UBDSV1 SAVING "FLOW FRONT FACE " ON UNIT   1 AT TIME STEP 50, STRESS PERIOD   3
1
              HEAD IN LAYER   1 AT END OF TIME STEP  50 IN STRESS PERIOD    3
  ---------------------------------------------------------------------------

            1           2           3           4           5           6           7           8           9          10
           11          12          13          14          15
 ........................................................................................................................
   1    3.500       3.500       3.500       3.500       3.500       3.500       3.500       3.500       3.500       3.500    
        3.500       3.500       3.500       3.500       3.500    
   2    3.790       3.776       3.751       3.737       3.789       3.849       3.893       3.907       3.877       3.882    
        3.895       3.903       3.900       3.891       3.885    
   3    3.911       3.877       3.805       3.723       3.880       4.023       4.121       4.172       4.164       4.187    
        4.224       4.249       4.236       4.210       4.193    
   4    3.927       3.876       3.729       3.320       3.836       4.086       4.237       4.333       4.365       4.421    
        4.506       4.572       4.526       4.461       4.423    
   5    3.893       3.865       3.807       3.746       3.937       4.124       4.278       4.405       4.475       4.579    
        4.756       4.960       4.784       4.637       4.564    
   6    3.812       3.807       3.805       3.833       3.949       4.094       4.239       4.380       4.477       4.623    
        4.939       5.692       4.973       4.695       4.590    
   7    3.676       3.685       3.709       3.761       3.857       3.979       4.113       4.251       4.346       4.462    
        4.650       4.863       4.691       4.546       4.475    
   8    3.481       3.496       3.529       3.586       3.671       3.779       3.901       4.031       4.116       4.198    
        4.304       4.387       4.351       4.292       4.257    
   9    3.225       3.240       3.273       3.326       3.401       3.496       3.609       3.734       3.818       3.882    
        3.951       4.001       4.004       3.987       3.973    
  10    2.910       2.923       2.951       2.994       3.055       3.136       3.239       3.369       3.473       3.536    
        3.594       3.634       3.651       3.653       3.650    
  11    2.543       2.552       2.571       2.601       2.644       2.703       2.786       2.919       3.096       3.173    
        3.231       3.269       3.291       3.300       3.302    
  12    2.302       2.308       2.320       2.339       2.368       2.407       2.463       2.544       2.712       2.811    
        2.868       2.903       2.924       2.934       2.938    
  13    2.212       2.216       2.225       2.240       2.260       2.288       2.324       2.369       2.425       2.478    
        2.515       2.538       2.552       2.560       2.563    
  14    2.116       2.118       2.123       2.131       2.142       2.157       2.175       2.193       2.202       2.219    
        2.234       2.245       2.252       2.256       2.258    
  15    2.015       2.016       2.017       2.018       2.019       2.021       2.022       2.023       2.023       2.025    
        2.025       2.026       2.027       2.027       2.027    
  16    2.062       2.064       2.068       2.073       2.079       2.083       2.080       2.075       2.069       2.065    
        2.061       2.058       2.057       2.055       2.055    
  17    2.104       2.108       2.116       2.127       2.140       2.148       2.139       2.126       2.113       2.102    
        2.094       2.088       2.084       2.081       2.080    
  18    2.140       2.145       2.158       2.177       2.203       2.228       2.201       2.172       2.150       2.133    
        2.121       2.113       2.107       2.103       2.101    
  19    2.165       2.172       2.188       2.215       2.261       2.357       2.258       2.209       2.178       2.156    
        2.141       2.130       2.123       2.118       2.116    
  20    2.178       2.186       2.203       2.229       2.263       2.295       2.260       2.222       2.191       2.168    
        2.151       2.140       2.131       2.127       2.124    

 HEAD WILL BE SAVED ON UNIT   51 AT END OF TIME STEP   50, STRESS PERIOD    3

 DRAWDOWN WILL BE SAVED ON UNIT   52 AT END OF TIME STEP   50, STRESS PERIOD    3
1
  VOLUMETRIC BUDGET FOR ENTIRE MODEL AT END OF TIME STEP   50, STRESS PERIOD   3
  ------------------------------------------------------------------------------

     CUMULATIVE VOLUMES      L**3       RATES FOR THIS TIME STEP      L**3/T
     ------------------                 ------------------------

           IN:                                      IN:
           ---                                      ---
             STORAGE =      120304.2969               STORAGE =         899.5753
       CONSTANT HEAD =       69797.2656         CONSTANT HEAD =           0.0000
               WELLS =       50600.0000                 WELLS =         600.0000
       RIVER LEAKAGE =      211534.9844         RIVER LEAKAGE =           0.0000

            TOTAL IN =      452236.5625              TOTAL IN =        1499.5752

          OUT:                                     OUT:
          ----                                     ----
             STORAGE =      247768.9688               STORAGE =           0.0000
       CONSTANT HEAD =       12703.7129         CONSTANT HEAD =         574.0129
               WELLS =       60600.0000                 WELLS =         100.0000
       RIVER LEAKAGE =      131163.8750         RIVER LEAKAGE =         825.5620

           TOTAL OUT =      452236.5625             TOTAL OUT =        1499.5750

            IN - OUT =           0.0000              IN - OUT =       2.4414E-04

 PERCENT DISCREPANCY =           0.00     PERCENT DISCREPANCY =           0.00






         TIME SUMMARY AT END OF TIME STEP   50 IN STRESS PERIOD    3
                    SECONDS     MINUTES      HOURS       DAYS        YEARS
                    -----------------------------------------------------------
   TIME STEP LENGTH  86400.      1440.0      24.000      1.0000     2.73785E-03
 STRESS PERIOD TIME 4.32000E+06  72000.      1200.0      50.000     0.13689    
         TOTAL TIME 1.30464E+07 2.17440E+05  3624.0      151.00     0.41342    
1
 
 SOLVING FOR HEAD 

 OUTPUT CONTROL FOR STRESS PERIOD    3   TIME STEP   51
    SAVE HEAD FOR ALL LAYERS
    SAVE DRAWDOWN FOR ALL LAYERS
    SAVE BUDGET
    PRINT HEAD FOR ALL LAYERS
    PRINT BUDGET
 UBDSV1 SAVING "         STORAGE" ON UNIT   1 AT TIME STEP 51, STRESS PERIOD   3
 UBDSV2 SAVING "   CONSTANT HEAD" ON UNIT   1 AT TIME STEP 51, STRESS PERIOD   3
 UBDSV1 SAVING "FLOW RIGHT FACE " ON UNIT   1 AT TIME STEP 51, STRESS PERIOD   3
 UBDSV1 SAVING "FLOW FRONT FACE " ON UNIT   1 AT TIME STEP 51, STRESS PERIOD   3
1
              HEAD IN LAYER   1 AT END OF TIME STEP  51 IN STRESS PERIOD    3
  ---------------------------------------------------------------------------

            1           2           3           4           5           6           7           8           9          10
           11          12          13          14          15
 ........................................................................................................................
   1    3.450       3.450       3.450       3.450       3.450       3.450       3.450       3.450       3.450       3.450    
        3.450       3.450       3.450       3.450       3.450    
   2    3.751       3.736       3.711       3.697       3.748       3.808       3.851       3.864       3.833       3.839    
        3.851       3.860       3.857       3.847       3.841    
   3    3.881       3.846       3.774       3.691       3.847       3.989       4.087       4.136       4.126       4.150    
        4.187       4.211       4.198       4.172       4.154    
   4    3.905       3.853       3.706       3.295       3.810       4.059       4.209       4.303       4.333       4.390    
        4.474       4.541       4.494       4.429       4.390    
   5    3.876       3.848       3.789       3.727       3.917       4.102       4.255       4.379       4.449       4.553    
        4.730       4.935       4.758       4.609       4.536    
   6    3.799       3.793       3.791       3.818       3.933       4.076       4.219       4.359       4.454       4.601    
        4.917       5.671       4.952       4.673       4.567    
   7    3.665       3.674       3.697       3.748       3.842       3.963       4.096       4.233       4.327       4.442    
        4.631       4.844       4.672       4.526       4.455    
   8    3.471       3.486       3.518       3.574       3.658       3.764       3.886       4.014       4.099       4.181    
        4.287       4.370       4.333       4.275       4.239    
   9    3.216       3.231       3.264       3.316       3.390       3.484       3.596       3.720       3.803       3.867    
        3.937       3.986       3.989       3.972       3.958    
  10    2.902       2.915       2.943       2.986       3.046       3.126       3.228       3.357       3.461       3.523    
        3.581       3.622       3.638       3.640       3.637    
  11    2.538       2.547       2.566       2.595       2.637       2.696       2.779       2.911       3.086       3.163    
        3.221       3.259       3.280       3.289       3.292    
  12    2.299       2.305       2.317       2.336       2.364       2.403       2.459       2.539       2.705       2.804    
        2.861       2.896       2.916       2.926       2.930    
  13    2.210       2.214       2.223       2.237       2.257       2.285       2.321       2.366       2.421       2.474    
        2.510       2.533       2.547       2.555       2.558    
  14    2.114       2.117       2.122       2.130       2.141       2.155       2.173       2.191       2.200       2.217    
        2.232       2.243       2.250       2.254       2.255    
  15    2.015       2.015       2.016       2.017       2.019       2.020       2.022       2.023       2.023       2.024    
        2.025       2.026       2.026       2.027       2.027    
  16    2.060       2.062       2.066       2.072       2.078       2.081       2.079       2.073       2.068       2.063    
        2.059       2.057       2.055       2.054       2.053    
  17    2.101       2.105       2.113       2.124       2.137       2.145       2.137       2.123       2.110       2.099    
        2.091       2.085       2.081       2.078       2.077    
  18    2.136       2.142       2.154       2.173       2.199       2.224       2.197       2.168       2.146       2.129    
        2.117       2.109       2.103       2.099       2.097    
  19    2.160       2.168       2.183       2.210       2.256       2.353       2.253       2.204       2.173       2.151    
        2.136       2.125       2.118       2.114       2.111    
  20    2.173       2.181       2.198       2.224       2.258       2.290       2.255       2.217       2.186       2.163    
        2.146       2.134       2.126       2.121       2.119    

 HEAD WILL BE SAVED ON UNIT   51 AT END OF TIME STEP   51, STRESS PERIOD    3

 DRAWDOWN WILL BE SAVED ON UNIT   52 AT END OF TIME STEP   51, STRESS PERIOD    3
1
  VOLUMETRIC BUDGET FOR ENTIRE MODEL AT END OF TIME STEP   51, STRESS PERIOD   3
  ------------------------------------------------------------------------------

     CUMULATIVE VOLUMES      L**3       RATES FOR THIS TIME STEP      L**3/T
     ------------------                 ------------------------

           IN:                                      IN:
           ---                                      ---
             STORAGE =      121203.0938               STORAGE =         898.7946
       CONSTANT HEAD =       69797.2656         CONSTANT HEAD =           0.0000
               WELLS =       51200.0000                 WELLS =         600.0000
       RIVER LEAKAGE =      211534.9844         RIVER LEAKAGE =           0.0000

            TOTAL IN =      453735.3438              TOTAL IN =        1498.7946

          OUT:                                     OUT:
          ----                                     ----
             STORAGE =      247768.9688               STORAGE =           0.0000
       CONSTANT HEAD =       13288.3330         CONSTANT HEAD =         584.6200
               WELLS =       60700.0000                 WELLS =         100.0000
       RIVER LEAKAGE =      131978.0469         RIVER LEAKAGE =         814.1752

           TOTAL OUT =      453735.3750             TOTAL OUT =        1498.7952

            IN - OUT =      -3.1250E-02              IN - OUT =      -6.1035E-04

 PERCENT DISCREPANCY =          -0.00     PERCENT DISCREPANCY =          -0.00






         TIME SUMMARY AT END OF TIME STEP   51 IN STRESS PERIOD    3
                    SECONDS     MINUTES      HOURS       DAYS        YEARS
                    -----------------------------------------------------------
   TIME STEP LENGTH  86400.      1440.0      24.000      1.0000     2.73785E-03
 STRESS PERIOD TIME 4.40640E+06  73440.      1224.0      51.000     0.13963    
         TOTAL TIME 1.31328E+07 2.18880E+05  3648.0      152.00     0.41615    
1
 
 SOLVING FOR HEAD 

 OUTPUT CONTROL FOR STRESS PERIOD    3   TIME STEP   52
    SAVE HEAD FOR ALL LAYERS
    SAVE DRAWDOWN FOR ALL LAYERS
    SAVE BUDGET
    PRINT HEAD FOR ALL LAYERS
    PRINT BUDGET
 UBDSV1 SAVING "         STORAGE" ON UNIT   1 AT TIME STEP 52, STRESS PERIOD   3
 UBDSV2 SAVING "   CONSTANT HEAD" ON UNIT   1 AT TIME STEP 52, STRESS PERIOD   3
 UBDSV1 SAVING "FLOW RIGHT FACE " ON UNIT   1 AT TIME STEP 52, STRESS PERIOD   3
 UBDSV1 SAVING "FLOW FRONT FACE " ON UNIT   1 AT TIME STEP 52, STRESS PERIOD   3
1
              HEAD IN LAYER   1 AT END OF TIME STEP  52 IN STRESS PERIOD    3
  ---------------------------------------------------------------------------

            1           2           3           4           5           6           7           8           9          10
           11          12          13          14          15
 ........................................................................................................................
   1    3.400       3.400       3.400       3.400       3.400       3.400       3.400       3.400       3.400       3.400    
        3.400       3.400       3.400       3.400       3.400    
   2    3.711       3.696       3.671       3.657       3.707       3.767       3.809       3.821       3.790       3.795    
        3.808       3.816       3.813       3.804       3.797    
   3    3.850       3.815       3.743       3.659       3.815       3.955       4.052       4.099       4.089       4.113    
        4.149       4.174       4.161       4.134       4.116    
   4    3.882       3.829       3.682       3.270       3.784       4.032       4.180       4.272       4.301       4.358    
        4.442       4.510       4.462       4.397       4.357    
   5    3.859       3.830       3.770       3.708       3.896       4.080       4.231       4.354       4.422       4.526    
        4.703       4.909       4.731       4.582       4.508    
   6    3.785       3.780       3.776       3.802       3.916       4.057       4.199       4.337       4.431       4.578    
        4.894       5.648       4.929       4.649       4.543    
   7    3.654       3.662       3.684       3.735       3.828       3.947       4.078       4.214       4.307       4.423    
        4.611       4.824       4.652       4.506       4.434    
   8    3.461       3.475       3.507       3.562       3.645       3.750       3.870       3.998       4.082       4.164    
        4.269       4.353       4.316       4.257       4.221    
   9    3.207       3.222       3.254       3.306       3.378       3.472       3.582       3.706       3.789       3.853    
        3.922       3.971       3.973       3.956       3.942    
  10    2.895       2.908       2.935       2.977       3.037       3.116       3.217       3.346       3.449       3.511    
        3.569       3.609       3.625       3.627       3.624    
  11    2.533       2.542       2.560       2.590       2.632       2.690       2.772       2.903       3.077       3.154    
        3.211       3.249       3.270       3.279       3.281    
  12    2.296       2.302       2.314       2.333       2.360       2.399       2.454       2.534       2.699       2.797    
        2.854       2.889       2.909       2.919       2.923    
  13    2.208       2.212       2.221       2.235       2.255       2.282       2.318       2.362       2.417       2.470    
        2.506       2.529       2.543       2.550       2.554    
  14    2.113       2.116       2.121       2.128       2.139       2.154       2.171       2.189       2.198       2.215    
        2.230       2.241       2.248       2.252       2.253    
  15    2.015       2.015       2.016       2.017       2.019       2.020       2.021       2.022       2.023       2.024    
        2.025       2.026       2.026       2.026       2.026    
  16    2.058       2.061       2.065       2.070       2.076       2.079       2.077       2.072       2.066       2.061    
        2.058       2.055       2.053       2.052       2.051    
  17    2.099       2.102       2.110       2.122       2.135       2.143       2.134       2.120       2.107       2.096    
        2.088       2.082       2.078       2.076       2.074    
  18    2.132       2.138       2.150       2.169       2.195       2.221       2.193       2.165       2.142       2.126    
        2.113       2.105       2.099       2.095       2.093    
  19    2.156       2.163       2.179       2.206       2.252       2.348       2.249       2.199       2.168       2.147    
        2.132       2.121       2.114       2.109       2.107    
  20    2.169       2.176       2.193       2.219       2.254       2.286       2.250       2.212       2.181       2.158    
        2.141       2.129       2.121       2.116       2.114    

 HEAD WILL BE SAVED ON UNIT   51 AT END OF TIME STEP   52, STRESS PERIOD    3

 DRAWDOWN WILL BE SAVED ON UNIT   52 AT END OF TIME STEP   52, STRESS PERIOD    3
1
  VOLUMETRIC BUDGET FOR ENTIRE MODEL AT END OF TIME STEP   52, STRESS PERIOD   3
  ------------------------------------------------------------------------------

     CUMULATIVE VOLUMES      L**3       RATES FOR THIS TIME STEP      L**3/T
     ------------------                 ------------------------

           IN:                                      IN:
           ---                                      ---
             STORAGE =      122101.5000               STORAGE =         898.4064
       CONSTANT HEAD =       69797.2656         CONSTANT HEAD =           0.0000
               WELLS =       51800.0000                 WELLS =         600.0000
       RIVER LEAKAGE =      211534.9844         RIVER LEAKAGE =           0.0000

            TOTAL IN =      455233.7500              TOTAL IN =        1498.4064

          OUT:                                     OUT:
          ----                                     ----
             STORAGE =      247768.9688               STORAGE =           0.0000
       CONSTANT HEAD =       13883.4062         CONSTANT HEAD =         595.0731
               WELLS =       60800.0000                 WELLS =         100.0000
       RIVER LEAKAGE =      132781.3750         RIVER LEAKAGE =         803.3328

           TOTAL OUT =      455233.7500             TOTAL OUT =        1498.4060

            IN - OUT =           0.0000              IN - OUT =       3.6621E-04

 PERCENT DISCREPANCY =           0.00     PERCENT DISCREPANCY =           0.00






         TIME SUMMARY AT END OF TIME STEP   52 IN STRESS PERIOD    3
                    SECONDS     MINUTES      HOURS       DAYS        YEARS
                    -----------------------------------------------------------
   TIME STEP LENGTH  86400.      1440.0      24.000      1.0000     2.73785E-03
 STRESS PERIOD TIME 4.49280E+06  74880.      1248.0      52.000     0.14237    
         TOTAL TIME 1.32192E+07 2.20320E+05  3672.0      153.00     0.41889    
1
 
 SOLVING FOR HEAD 

 OUTPUT CONTROL FOR STRESS PERIOD    3   TIME STEP   53
    SAVE HEAD FOR ALL LAYERS
    SAVE DRAWDOWN FOR ALL LAYERS
    SAVE BUDGET
    PRINT HEAD FOR ALL LAYERS
    PRINT BUDGET
 UBDSV1 SAVING "         STORAGE" ON UNIT   1 AT TIME STEP 53, STRESS PERIOD   3
 UBDSV2 SAVING "   CONSTANT HEAD" ON UNIT   1 AT TIME STEP 53, STRESS PERIOD   3
 UBDSV1 SAVING "FLOW RIGHT FACE " ON UNIT   1 AT TIME STEP 53, STRESS PERIOD   3
 UBDSV1 SAVING "FLOW FRONT FACE " ON UNIT   1 AT TIME STEP 53, STRESS PERIOD   3
1
              HEAD IN LAYER   1 AT END OF TIME STEP  53 IN STRESS PERIOD    3
  ---------------------------------------------------------------------------

            1           2           3           4           5           6           7           8           9          10
           11          12          13          14          15
 ........................................................................................................................
   1    3.350       3.350       3.350       3.350       3.350       3.350       3.350       3.350       3.350       3.350    
        3.350       3.350       3.350       3.350       3.350    
   2    3.671       3.656       3.631       3.616       3.666       3.725       3.767       3.778       3.746       3.751    
        3.764       3.772       3.769       3.760       3.753    
   3    3.819       3.784       3.712       3.626       3.782       3.921       4.016       4.063       4.052       4.075    
        4.111       4.136       4.123       4.096       4.078    
   4    3.858       3.806       3.657       3.244       3.758       4.004       4.151       4.242       4.269       4.326    
        4.410       4.477       4.430       4.364       4.324    
   5    3.841       3.812       3.751       3.688       3.875       4.057       4.207       4.328       4.395       4.498    
        4.676       4.881       4.704       4.554       4.480    
   6    3.771       3.765       3.761       3.786       3.898       4.038       4.179       4.315       4.408       4.554    
        4.871       5.625       4.906       4.625       4.519    
   7    3.642       3.650       3.672       3.721       3.813       3.931       4.060       4.194       4.287       4.403    
        4.591       4.804       4.632       4.485       4.413    
   8    3.451       3.465       3.496       3.550       3.632       3.736       3.855       3.981       4.065       4.146    
        4.252       4.335       4.298       4.239       4.203    
   9    3.198       3.213       3.244       3.295       3.367       3.460       3.569       3.692       3.774       3.838    
        3.907       3.956       3.958       3.941       3.927    
  10    2.888       2.900       2.927       2.969       3.028       3.107       3.207       3.335       3.437       3.499    
        3.556       3.596       3.613       3.614       3.611    
  11    2.528       2.537       2.555       2.584       2.626       2.683       2.765       2.895       3.068       3.144    
        3.201       3.239       3.260       3.269       3.271    
  12    2.293       2.299       2.311       2.329       2.357       2.396       2.450       2.530       2.693       2.791    
        2.847       2.881       2.901       2.911       2.915    
  13    2.206       2.210       2.219       2.232       2.252       2.280       2.315       2.359       2.413       2.466    
        2.501       2.524       2.538       2.546       2.549    
  14    2.112       2.114       2.119       2.127       2.138       2.152       2.169       2.187       2.196       2.213    
        2.228       2.239       2.246       2.249       2.251    
  15    2.015       2.015       2.016       2.017       2.018       2.020       2.021       2.022       2.023       2.024    
        2.025       2.025       2.026       2.026       2.026    
  16    2.057       2.059       2.063       2.069       2.075       2.078       2.075       2.070       2.065       2.060    
        2.056       2.054       2.052       2.050       2.050    
  17    2.096       2.100       2.108       2.119       2.132       2.140       2.131       2.117       2.104       2.094    
        2.085       2.080       2.075       2.073       2.072    
  18    2.129       2.134       2.147       2.166       2.191       2.217       2.189       2.161       2.139       2.122    
        2.110       2.101       2.095       2.092       2.090    
  19    2.152       2.159       2.175       2.202       2.248       2.344       2.245       2.195       2.164       2.143    
        2.128       2.117       2.109       2.105       2.103    
  20    2.164       2.172       2.189       2.215       2.249       2.281       2.246       2.207       2.176       2.153    
        2.137       2.125       2.117       2.112       2.109    

 HEAD WILL BE SAVED ON UNIT   51 AT END OF TIME STEP   53, STRESS PERIOD    3

 DRAWDOWN WILL BE SAVED ON UNIT   52 AT END OF TIME STEP   53, STRESS PERIOD    3
1
  VOLUMETRIC BUDGET FOR ENTIRE MODEL AT END OF TIME STEP   53, STRESS PERIOD   3
  ------------------------------------------------------------------------------

     CUMULATIVE VOLUMES      L**3       RATES FOR THIS TIME STEP      L**3/T
     ------------------                 ------------------------

           IN:                                      IN:
           ---                                      ---
             STORAGE =      122999.8516               STORAGE =         898.3503
       CONSTANT HEAD =       69797.2656         CONSTANT HEAD =           0.0000
               WELLS =       52400.0000                 WELLS =         600.0000
       RIVER LEAKAGE =      211534.9844         RIVER LEAKAGE =           0.0000

            TOTAL IN =      456732.1250              TOTAL IN =        1498.3503

          OUT:                                     OUT:
          ----                                     ----
             STORAGE =      247768.9688               STORAGE =           0.0000
       CONSTANT HEAD =       14488.7637         CONSTANT HEAD =         605.3574
               WELLS =       60900.0000                 WELLS =         100.0000
       RIVER LEAKAGE =      133574.3750         RIVER LEAKAGE =         792.9930

           TOTAL OUT =      456732.0938             TOTAL OUT =        1498.3505

            IN - OUT =       3.1250E-02              IN - OUT =      -1.2207E-04

 PERCENT DISCREPANCY =           0.00     PERCENT DISCREPANCY =          -0.00






         TIME SUMMARY AT END OF TIME STEP   53 IN STRESS PERIOD    3
                    SECONDS     MINUTES      HOURS       DAYS        YEARS
                    -----------------------------------------------------------
   TIME STEP LENGTH  86400.      1440.0      24.000      1.0000     2.73785E-03
 STRESS PERIOD TIME 4.57920E+06  76320.      1272.0      53.000     0.14511    
         TOTAL TIME 1.33056E+07 2.21760E+05  3696.0      154.00     0.42163    
1
 
 SOLVING FOR HEAD 

 OUTPUT CONTROL FOR STRESS PERIOD    3   TIME STEP   54
    SAVE HEAD FOR ALL LAYERS
    SAVE DRAWDOWN FOR ALL LAYERS
    SAVE BUDGET
    PRINT HEAD FOR ALL LAYERS
    PRINT BUDGET
 UBDSV1 SAVING "         STORAGE" ON UNIT   1 AT TIME STEP 54, STRESS PERIOD   3
 UBDSV2 SAVING "   CONSTANT HEAD" ON UNIT   1 AT TIME STEP 54, STRESS PERIOD   3
 UBDSV1 SAVING "FLOW RIGHT FACE " ON UNIT   1 AT TIME STEP 54, STRESS PERIOD   3
 UBDSV1 SAVING "FLOW FRONT FACE " ON UNIT   1 AT TIME STEP 54, STRESS PERIOD   3
1
              HEAD IN LAYER   1 AT END OF TIME STEP  54 IN STRESS PERIOD    3
  ---------------------------------------------------------------------------

            1           2           3           4           5           6           7           8           9          10
           11          12          13          14          15
 ........................................................................................................................
   1    3.300       3.300       3.300       3.300       3.300       3.300       3.300       3.300       3.300       3.300    
        3.300       3.300       3.300       3.300       3.300    
   2    3.631       3.616       3.590       3.575       3.625       3.683       3.725       3.735       3.703       3.708    
        3.720       3.729       3.725       3.716       3.709    
   3    3.788       3.753       3.680       3.594       3.748       3.887       3.981       4.026       4.014       4.037    
        4.073       4.098       4.085       4.058       4.040    
   4    3.834       3.781       3.632       3.219       3.731       3.976       4.122       4.211       4.237       4.293    
        4.378       4.445       4.397       4.331       4.291    
   5    3.823       3.793       3.732       3.668       3.853       4.034       4.182       4.302       4.367       4.471    
        4.648       4.854       4.676       4.526       4.452    
   6    3.757       3.751       3.746       3.769       3.881       4.019       4.158       4.292       4.385       4.531    
        4.847       5.601       4.882       4.601       4.494    
   7    3.631       3.638       3.659       3.707       3.798       3.915       4.043       4.175       4.267       4.382    
        4.570       4.784       4.611       4.464       4.392    
   8    3.441       3.455       3.485       3.538       3.619       3.722       3.840       3.965       4.047       4.129    
        4.234       4.317       4.280       4.221       4.184    
   9    3.190       3.204       3.235       3.285       3.356       3.447       3.556       3.678       3.760       3.823    
        3.892       3.940       3.943       3.925       3.911    
  10    2.881       2.893       2.919       2.961       3.020       3.097       3.197       3.323       3.425       3.487    
        3.544       3.584       3.600       3.601       3.598    
  11    2.524       2.532       2.550       2.579       2.620       2.677       2.758       2.887       3.059       3.135    
        3.191       3.229       3.250       3.259       3.261    
  12    2.290       2.296       2.308       2.326       2.354       2.392       2.446       2.525       2.687       2.784    
        2.840       2.874       2.894       2.904       2.908    
  13    2.204       2.208       2.217       2.230       2.250       2.277       2.312       2.356       2.410       2.462    
        2.497       2.520       2.534       2.541       2.544    
  14    2.111       2.113       2.118       2.126       2.137       2.151       2.168       2.186       2.194       2.212    
        2.226       2.237       2.243       2.247       2.249    
  15    2.014       2.015       2.016       2.017       2.018       2.020       2.021       2.022       2.022       2.023    
        2.024       2.025       2.025       2.026       2.026    
  16    2.056       2.058       2.062       2.068       2.073       2.077       2.074       2.069       2.063       2.058    
        2.055       2.052       2.050       2.049       2.048    
  17    2.094       2.098       2.106       2.117       2.130       2.138       2.129       2.115       2.102       2.091    
        2.083       2.077       2.073       2.071       2.069    
  18    2.125       2.131       2.143       2.162       2.188       2.214       2.186       2.158       2.136       2.119    
        2.107       2.098       2.092       2.088       2.087    
  19    2.148       2.156       2.171       2.198       2.244       2.341       2.241       2.192       2.161       2.139    
        2.124       2.113       2.106       2.101       2.099    
  20    2.160       2.168       2.185       2.211       2.245       2.277       2.242       2.203       2.172       2.149    
        2.133       2.121       2.113       2.108       2.105    

 HEAD WILL BE SAVED ON UNIT   51 AT END OF TIME STEP   54, STRESS PERIOD    3

 DRAWDOWN WILL BE SAVED ON UNIT   52 AT END OF TIME STEP   54, STRESS PERIOD    3
1
  VOLUMETRIC BUDGET FOR ENTIRE MODEL AT END OF TIME STEP   54, STRESS PERIOD   3
  ------------------------------------------------------------------------------

     CUMULATIVE VOLUMES      L**3       RATES FOR THIS TIME STEP      L**3/T
     ------------------                 ------------------------

           IN:                                      IN:
           ---                                      ---
             STORAGE =      123898.4297               STORAGE =         898.5809
       CONSTANT HEAD =       69797.2656         CONSTANT HEAD =           0.0000
               WELLS =       53000.0000                 WELLS =         600.0000
       RIVER LEAKAGE =      211534.9844         RIVER LEAKAGE =           0.0000

            TOTAL IN =      458230.6875              TOTAL IN =        1498.5808

          OUT:                                     OUT:
          ----                                     ----
             STORAGE =      247768.9688               STORAGE =           0.0000
       CONSTANT HEAD =       15104.2285         CONSTANT HEAD =         615.4652
               WELLS =       61000.0000                 WELLS =         100.0000
       RIVER LEAKAGE =      134357.4844         RIVER LEAKAGE =         783.1151

           TOTAL OUT =      458230.6875             TOTAL OUT =        1498.5803

            IN - OUT =           0.0000              IN - OUT =       4.8828E-04

 PERCENT DISCREPANCY =           0.00     PERCENT DISCREPANCY =           0.00






         TIME SUMMARY AT END OF TIME STEP   54 IN STRESS PERIOD    3
                    SECONDS     MINUTES      HOURS       DAYS        YEARS
                    -----------------------------------------------------------
   TIME STEP LENGTH  86400.      1440.0      24.000      1.0000     2.73785E-03
 STRESS PERIOD TIME 4.66560E+06  77760.      1296.0      54.000     0.14784    
         TOTAL TIME 1.33920E+07 2.23200E+05  3720.0      155.00     0.42437    
1
 
 SOLVING FOR HEAD 

 OUTPUT CONTROL FOR STRESS PERIOD    3   TIME STEP   55
    SAVE HEAD FOR ALL LAYERS
    SAVE DRAWDOWN FOR ALL LAYERS
    SAVE BUDGET
    PRINT HEAD FOR ALL LAYERS
    PRINT BUDGET
 UBDSV1 SAVING "         STORAGE" ON UNIT   1 AT TIME STEP 55, STRESS PERIOD   3
 UBDSV2 SAVING "   CONSTANT HEAD" ON UNIT   1 AT TIME STEP 55, STRESS PERIOD   3
 UBDSV1 SAVING "FLOW RIGHT FACE " ON UNIT   1 AT TIME STEP 55, STRESS PERIOD   3
 UBDSV1 SAVING "FLOW FRONT FACE " ON UNIT   1 AT TIME STEP 55, STRESS PERIOD   3
1
              HEAD IN LAYER   1 AT END OF TIME STEP  55 IN STRESS PERIOD    3
  ---------------------------------------------------------------------------

            1           2           3           4           5           6           7           8           9          10
           11          12          13          14          15
 ........................................................................................................................
   1    3.250       3.250       3.250       3.250       3.250       3.250       3.250       3.250       3.250       3.250    
        3.250       3.250       3.250       3.250       3.250    
   2    3.590       3.575       3.549       3.534       3.584       3.641       3.682       3.692       3.659       3.664    
        3.676       3.685       3.681       3.672       3.665    
   3    3.756       3.721       3.647       3.561       3.715       3.853       3.946       3.990       3.976       3.999    
        4.035       4.060       4.046       4.019       4.001    
   4    3.810       3.757       3.607       3.192       3.704       3.948       4.092       4.180       4.205       4.261    
        4.345       4.412       4.364       4.298       4.258    
   5    3.805       3.774       3.713       3.647       3.832       4.011       4.157       4.275       4.340       4.443    
        4.620       4.826       4.647       4.497       4.423    
   6    3.742       3.736       3.730       3.753       3.863       4.000       4.137       4.270       4.361       4.507    
        4.823       5.577       4.858       4.577       4.469    
   7    3.618       3.626       3.646       3.693       3.783       3.898       4.025       4.156       4.247       4.362    
        4.550       4.763       4.590       4.443       4.371    
   8    3.431       3.444       3.474       3.526       3.606       3.708       3.824       3.948       4.030       4.111    
        4.217       4.300       4.262       4.203       4.166    
   9    3.181       3.195       3.225       3.275       3.345       3.436       3.543       3.664       3.745       3.808    
        3.877       3.925       3.928       3.910       3.896    
  10    2.874       2.886       2.912       2.953       3.011       3.088       3.187       3.312       3.414       3.475    
        3.532       3.571       3.587       3.588       3.586    
  11    2.519       2.528       2.546       2.574       2.615       2.671       2.752       2.880       3.051       3.126    
        3.182       3.220       3.240       3.248       3.251    
  12    2.287       2.293       2.305       2.323       2.350       2.388       2.442       2.520       2.682       2.778    
        2.833       2.867       2.887       2.897       2.900    
  13    2.202       2.206       2.214       2.228       2.248       2.274       2.310       2.353       2.406       2.458    
        2.493       2.516       2.529       2.537       2.540    
  14    2.110       2.112       2.117       2.125       2.135       2.149       2.166       2.184       2.193       2.210    
        2.224       2.235       2.241       2.245       2.247    
  15    2.014       2.015       2.015       2.016       2.018       2.019       2.021       2.022       2.022       2.023    
        2.024       2.025       2.025       2.025       2.025    
  16    2.055       2.057       2.061       2.066       2.072       2.075       2.073       2.068       2.062       2.057    
        2.053       2.051       2.049       2.048       2.047    
  17    2.092       2.095       2.103       2.115       2.127       2.136       2.127       2.113       2.100       2.089    
        2.081       2.075       2.071       2.068       2.067    
  18    2.122       2.128       2.140       2.159       2.185       2.211       2.183       2.155       2.133       2.116    
        2.104       2.095       2.089       2.085       2.083    
  19    2.145       2.152       2.168       2.194       2.240       2.337       2.237       2.188       2.157       2.135    
        2.120       2.109       2.102       2.097       2.095    
  20    2.156       2.164       2.181       2.207       2.241       2.273       2.238       2.199       2.169       2.145    
        2.129       2.117       2.109       2.104       2.101    

 HEAD WILL BE SAVED ON UNIT   51 AT END OF TIME STEP   55, STRESS PERIOD    3

 DRAWDOWN WILL BE SAVED ON UNIT   52 AT END OF TIME STEP   55, STRESS PERIOD    3
1
  VOLUMETRIC BUDGET FOR ENTIRE MODEL AT END OF TIME STEP   55, STRESS PERIOD   3
  ------------------------------------------------------------------------------

     CUMULATIVE VOLUMES      L**3       RATES FOR THIS TIME STEP      L**3/T
     ------------------                 ------------------------

           IN:                                      IN:
           ---                                      ---
             STORAGE =      124797.4844               STORAGE =         899.0560
       CONSTANT HEAD =       69797.2656         CONSTANT HEAD =           0.0000
               WELLS =       53600.0000                 WELLS =         600.0000
       RIVER LEAKAGE =      211534.9844         RIVER LEAKAGE =           0.0000

            TOTAL IN =      459729.7500              TOTAL IN =        1499.0560

          OUT:                                     OUT:
          ----                                     ----
             STORAGE =      247768.9688               STORAGE =           0.0000
       CONSTANT HEAD =       15729.6230         CONSTANT HEAD =         625.3942
               WELLS =       61100.0000                 WELLS =         100.0000
       RIVER LEAKAGE =      135131.1406         RIVER LEAKAGE =         773.6605

           TOTAL OUT =      459729.7500             TOTAL OUT =        1499.0547

            IN - OUT =           0.0000              IN - OUT =       1.3428E-03

 PERCENT DISCREPANCY =           0.00     PERCENT DISCREPANCY =           0.00






         TIME SUMMARY AT END OF TIME STEP   55 IN STRESS PERIOD    3
                    SECONDS     MINUTES      HOURS       DAYS        YEARS
                    -----------------------------------------------------------
   TIME STEP LENGTH  86400.      1440.0      24.000      1.0000     2.73785E-03
 STRESS PERIOD TIME 4.75200E+06  79200.      1320.0      55.000     0.15058    
         TOTAL TIME 1.34784E+07 2.24640E+05  3744.0      156.00     0.42710    
1
 
 SOLVING FOR HEAD 

 OUTPUT CONTROL FOR STRESS PERIOD    3   TIME STEP   56
    SAVE HEAD FOR ALL LAYERS
    SAVE DRAWDOWN FOR ALL LAYERS
    SAVE BUDGET
    PRINT HEAD FOR ALL LAYERS
    PRINT BUDGET
 UBDSV1 SAVING "         STORAGE" ON UNIT   1 AT TIME STEP 56, STRESS PERIOD   3
 UBDSV2 SAVING "   CONSTANT HEAD" ON UNIT   1 AT TIME STEP 56, STRESS PERIOD   3
 UBDSV1 SAVING "FLOW RIGHT FACE " ON UNIT   1 AT TIME STEP 56, STRESS PERIOD   3
 UBDSV1 SAVING "FLOW FRONT FACE " ON UNIT   1 AT TIME STEP 56, STRESS PERIOD   3
1
              HEAD IN LAYER   1 AT END OF TIME STEP  56 IN STRESS PERIOD    3
  ---------------------------------------------------------------------------

            1           2           3           4           5           6           7           8           9          10
           11          12          13          14          15
 ........................................................................................................................
   1    3.200       3.200       3.200       3.200       3.200       3.200       3.200       3.200       3.200       3.200    
        3.200       3.200       3.200       3.200       3.200    
   2    3.550       3.535       3.508       3.493       3.542       3.599       3.640       3.649       3.615       3.620    
        3.632       3.641       3.637       3.627       3.620    
   3    3.724       3.689       3.615       3.528       3.681       3.818       3.910       3.953       3.939       3.961    
        3.997       4.021       4.008       3.981       3.962    
   4    3.785       3.732       3.582       3.166       3.676       3.919       4.062       4.148       4.172       4.228    
        4.312       4.379       4.331       4.264       4.224    
   5    3.785       3.755       3.693       3.626       3.810       3.988       4.132       4.249       4.312       4.415    
        4.592       4.797       4.619       4.468       4.394    
   6    3.727       3.720       3.714       3.736       3.844       3.980       4.116       4.247       4.337       4.483    
        4.799       5.552       4.833       4.552       4.444    
   7    3.606       3.613       3.633       3.679       3.767       3.881       4.007       4.137       4.226       4.341    
        4.529       4.742       4.569       4.422       4.349    
   8    3.420       3.433       3.462       3.514       3.593       3.694       3.809       3.932       4.013       4.094    
        4.199       4.282       4.244       4.185       4.148    
   9    3.172       3.186       3.216       3.265       3.334       3.424       3.530       3.650       3.731       3.794    
        3.862       3.910       3.912       3.895       3.880    
  10    2.867       2.879       2.905       2.945       3.002       3.079       3.177       3.301       3.402       3.463    
        3.519       3.559       3.575       3.576       3.573    
  11    2.515       2.523       2.541       2.569       2.609       2.665       2.745       2.872       3.042       3.116    
        3.172       3.210       3.230       3.238       3.241    
  12    2.285       2.290       2.302       2.320       2.347       2.385       2.438       2.516       2.676       2.771    
        2.826       2.860       2.880       2.889       2.893    
  13    2.200       2.204       2.212       2.226       2.245       2.272       2.307       2.349       2.403       2.454    
        2.489       2.511       2.525       2.532       2.536    
  14    2.109       2.111       2.116       2.123       2.134       2.148       2.165       2.182       2.191       2.208    
        2.222       2.233       2.239       2.243       2.245    
  15    2.014       2.014       2.015       2.016       2.018       2.019       2.020       2.021       2.022       2.023    
        2.024       2.024       2.025       2.025       2.025    
  16    2.053       2.055       2.060       2.065       2.071       2.074       2.072       2.066       2.061       2.056    
        2.052       2.050       2.048       2.046       2.046    
  17    2.090       2.093       2.101       2.113       2.125       2.134       2.125       2.111       2.097       2.087    
        2.079       2.073       2.069       2.066       2.065    
  18    2.120       2.126       2.138       2.157       2.183       2.208       2.180       2.152       2.130       2.113    
        2.101       2.092       2.086       2.082       2.081    
  19    2.142       2.149       2.165       2.191       2.237       2.334       2.234       2.185       2.154       2.132    
        2.117       2.106       2.099       2.094       2.092    
  20    2.153       2.161       2.177       2.203       2.238       2.270       2.234       2.196       2.165       2.142    
        2.125       2.113       2.105       2.100       2.098    

 HEAD WILL BE SAVED ON UNIT   51 AT END OF TIME STEP   56, STRESS PERIOD    3

 DRAWDOWN WILL BE SAVED ON UNIT   52 AT END OF TIME STEP   56, STRESS PERIOD    3
1
  VOLUMETRIC BUDGET FOR ENTIRE MODEL AT END OF TIME STEP   56, STRESS PERIOD   3
  ------------------------------------------------------------------------------

     CUMULATIVE VOLUMES      L**3       RATES FOR THIS TIME STEP      L**3/T
     ------------------                 ------------------------

           IN:                                      IN:
           ---                                      ---
             STORAGE =      125697.2266               STORAGE =         899.7437
       CONSTANT HEAD =       69797.2656         CONSTANT HEAD =           0.0000
               WELLS =       54200.0000                 WELLS =         600.0000
       RIVER LEAKAGE =      211534.9844         RIVER LEAKAGE =           0.0000

            TOTAL IN =      461229.5000              TOTAL IN =        1499.7437

          OUT:                                     OUT:
          ----                                     ----
             STORAGE =      247768.9688               STORAGE =           0.0000
       CONSTANT HEAD =       16364.7715         CONSTANT HEAD =         635.1481
               WELLS =       61200.0000                 WELLS =         100.0000
       RIVER LEAKAGE =      135895.7344         RIVER LEAKAGE =         764.5963

           TOTAL OUT =      461229.5000             TOTAL OUT =        1499.7444

            IN - OUT =           0.0000              IN - OUT =      -7.3242E-04

 PERCENT DISCREPANCY =           0.00     PERCENT DISCREPANCY =          -0.00






         TIME SUMMARY AT END OF TIME STEP   56 IN STRESS PERIOD    3
                    SECONDS     MINUTES      HOURS       DAYS        YEARS
                    -----------------------------------------------------------
   TIME STEP LENGTH  86400.      1440.0      24.000      1.0000     2.73785E-03
 STRESS PERIOD TIME 4.83840E+06  80640.      1344.0      56.000     0.15332    
         TOTAL TIME 1.35648E+07 2.26080E+05  3768.0      157.00     0.42984    
1
 
 SOLVING FOR HEAD 

 OUTPUT CONTROL FOR STRESS PERIOD    3   TIME STEP   57
    SAVE HEAD FOR ALL LAYERS
    SAVE DRAWDOWN FOR ALL LAYERS
    SAVE BUDGET
    PRINT HEAD FOR ALL LAYERS
    PRINT BUDGET
 UBDSV1 SAVING "         STORAGE" ON UNIT   1 AT TIME STEP 57, STRESS PERIOD   3
 UBDSV2 SAVING "   CONSTANT HEAD" ON UNIT   1 AT TIME STEP 57, STRESS PERIOD   3
 UBDSV1 SAVING "FLOW RIGHT FACE " ON UNIT   1 AT TIME STEP 57, STRESS PERIOD   3
 UBDSV1 SAVING "FLOW FRONT FACE " ON UNIT   1 AT TIME STEP 57, STRESS PERIOD   3
1
              HEAD IN LAYER   1 AT END OF TIME STEP  57 IN STRESS PERIOD    3
  ---------------------------------------------------------------------------

            1           2           3           4           5           6           7           8           9          10
           11          12          13          14          15
 ........................................................................................................................
   1    3.150       3.150       3.150       3.150       3.150       3.150       3.150       3.150       3.150       3.150    
        3.150       3.150       3.150       3.150       3.150    
   2    3.509       3.494       3.467       3.452       3.500       3.557       3.597       3.605       3.571       3.576    
        3.588       3.596       3.593       3.583       3.576    
   3    3.692       3.656       3.582       3.494       3.646       3.783       3.874       3.916       3.901       3.923    
        3.958       3.983       3.969       3.942       3.924    
   4    3.760       3.707       3.556       3.139       3.649       3.890       4.032       4.117       4.140       4.195    
        4.279       4.345       4.297       4.230       4.191    
   5    3.766       3.735       3.672       3.605       3.787       3.964       4.107       4.222       4.284       4.386    
        4.563       4.768       4.590       4.439       4.365    
   6    3.712       3.705       3.698       3.718       3.826       3.960       4.095       4.224       4.313       4.458    
        4.774       5.528       4.808       4.527       4.419    
   7    3.594       3.600       3.619       3.665       3.752       3.865       3.989       4.117       4.206       4.320    
        4.508       4.721       4.548       4.400       4.328    
   8    3.410       3.422       3.451       3.502       3.580       3.679       3.793       3.915       3.995       4.076    
        4.181       4.263       4.226       4.166       4.129    
   9    3.163       3.177       3.206       3.255       3.323       3.412       3.518       3.636       3.716       3.779    
        3.847       3.895       3.897       3.879       3.865    
  10    2.860       2.872       2.897       2.937       2.994       3.069       3.167       3.291       3.390       3.451    
        3.507       3.546       3.562       3.563       3.560    
  11    2.510       2.519       2.536       2.564       2.604       2.659       2.739       2.865       3.033       3.107    
        3.163       3.200       3.220       3.228       3.231    
  12    2.282       2.288       2.299       2.317       2.344       2.381       2.434       2.512       2.670       2.765    
        2.820       2.853       2.872       2.882       2.886    
  13    2.198       2.202       2.210       2.224       2.243       2.269       2.304       2.346       2.399       2.450    
        2.485       2.507       2.521       2.528       2.531    
  14    2.108       2.110       2.115       2.122       2.133       2.146       2.163       2.181       2.189       2.206    
        2.220       2.231       2.237       2.241       2.243    
  15    2.014       2.014       2.015       2.016       2.017       2.019       2.020       2.021       2.022       2.023    
        2.023       2.024       2.024       2.025       2.025    
  16    2.052       2.054       2.059       2.064       2.070       2.073       2.071       2.065       2.060       2.055    
        2.051       2.048       2.047       2.045       2.045    
  17    2.088       2.092       2.099       2.111       2.124       2.132       2.123       2.109       2.096       2.085    
        2.077       2.071       2.067       2.064       2.063    
  18    2.117       2.123       2.135       2.154       2.180       2.206       2.178       2.150       2.127       2.110    
        2.098       2.090       2.084       2.080       2.078    
  19    2.139       2.146       2.162       2.188       2.234       2.331       2.231       2.182       2.151       2.129    
        2.114       2.103       2.096       2.091       2.089    
  20    2.150       2.158       2.174       2.200       2.235       2.267       2.231       2.193       2.162       2.139    
        2.122       2.110       2.102       2.097       2.094    

 HEAD WILL BE SAVED ON UNIT   51 AT END OF TIME STEP   57, STRESS PERIOD    3

 DRAWDOWN WILL BE SAVED ON UNIT   52 AT END OF TIME STEP   57, STRESS PERIOD    3
1
  VOLUMETRIC BUDGET FOR ENTIRE MODEL AT END OF TIME STEP   57, STRESS PERIOD   3
  ------------------------------------------------------------------------------

     CUMULATIVE VOLUMES      L**3       RATES FOR THIS TIME STEP      L**3/T
     ------------------                 ------------------------

           IN:                                      IN:
           ---                                      ---
             STORAGE =      126597.8438               STORAGE =         900.6208
       CONSTANT HEAD =       69797.2656         CONSTANT HEAD =           0.0000
               WELLS =       54800.0000                 WELLS =         600.0000
       RIVER LEAKAGE =      211534.9844         RIVER LEAKAGE =           0.0000

            TOTAL IN =      462730.0938              TOTAL IN =        1500.6208

          OUT:                                     OUT:
          ----                                     ----
             STORAGE =      247768.9688               STORAGE =           0.0000
       CONSTANT HEAD =       17009.5039         CONSTANT HEAD =         644.7327
               WELLS =       61300.0000                 WELLS =         100.0000
       RIVER LEAKAGE =      136651.6250         RIVER LEAKAGE =         755.8873

           TOTAL OUT =      462730.0938             TOTAL OUT =        1500.6201

            IN - OUT =           0.0000              IN - OUT =       7.3242E-04

 PERCENT DISCREPANCY =           0.00     PERCENT DISCREPANCY =           0.00






         TIME SUMMARY AT END OF TIME STEP   57 IN STRESS PERIOD    3
                    SECONDS     MINUTES      HOURS       DAYS        YEARS
                    -----------------------------------------------------------
   TIME STEP LENGTH  86400.      1440.0      24.000      1.0000     2.73785E-03
 STRESS PERIOD TIME 4.92480E+06  82080.      1368.0      57.000     0.15606    
         TOTAL TIME 1.36512E+07 2.27520E+05  3792.0      158.00     0.43258    
1
 
 SOLVING FOR HEAD 

 OUTPUT CONTROL FOR STRESS PERIOD    3   TIME STEP   58
    SAVE HEAD FOR ALL LAYERS
    SAVE DRAWDOWN FOR ALL LAYERS
    SAVE BUDGET
    PRINT HEAD FOR ALL LAYERS
    PRINT BUDGET
 UBDSV1 SAVING "         STORAGE" ON UNIT   1 AT TIME STEP 58, STRESS PERIOD   3
 UBDSV2 SAVING "   CONSTANT HEAD" ON UNIT   1 AT TIME STEP 58, STRESS PERIOD   3
 UBDSV1 SAVING "FLOW RIGHT FACE " ON UNIT   1 AT TIME STEP 58, STRESS PERIOD   3
 UBDSV1 SAVING "FLOW FRONT FACE " ON UNIT   1 AT TIME STEP 58, STRESS PERIOD   3
1
              HEAD IN LAYER   1 AT END OF TIME STEP  58 IN STRESS PERIOD    3
  ---------------------------------------------------------------------------

            1           2           3           4           5           6           7           8           9          10
           11          12          13          14          15
 ........................................................................................................................
   1    3.100       3.100       3.100       3.100       3.100       3.100       3.100       3.100       3.100       3.100    
        3.100       3.100       3.100       3.100       3.100    
   2    3.468       3.453       3.426       3.410       3.459       3.515       3.554       3.562       3.528       3.532    
        3.544       3.552       3.548       3.539       3.532    
   3    3.660       3.624       3.549       3.460       3.612       3.748       3.838       3.878       3.862       3.884    
        3.920       3.944       3.930       3.903       3.885    
   4    3.735       3.681       3.529       3.112       3.621       3.861       4.002       4.085       4.107       4.161    
        4.245       4.312       4.263       4.197       4.157    
   5    3.746       3.715       3.651       3.583       3.764       3.940       4.082       4.195       4.256       4.357    
        4.534       4.739       4.560       4.410       4.335    
   6    3.696       3.689       3.681       3.701       3.807       3.940       4.073       4.201       4.289       4.434    
        4.750       5.503       4.783       4.501       4.394    
   7    3.581       3.587       3.605       3.650       3.736       3.848       3.970       4.098       4.185       4.299    
        4.487       4.699       4.526       4.379       4.306    
   8    3.399       3.411       3.440       3.490       3.567       3.665       3.778       3.899       3.978       4.058    
        4.163       4.245       4.208       4.148       4.111    
   9    3.154       3.168       3.197       3.244       3.312       3.400       3.505       3.623       3.702       3.764    
        3.832       3.880       3.882       3.863       3.849    
  10    2.853       2.865       2.890       2.929       2.986       3.060       3.157       3.280       3.379       3.439    
        3.495       3.534       3.549       3.550       3.547    
  11    2.506       2.514       2.532       2.559       2.599       2.654       2.732       2.858       3.025       3.098    
        3.153       3.190       3.210       3.218       3.221    
  12    2.280       2.285       2.297       2.315       2.341       2.378       2.431       2.507       2.665       2.759    
        2.813       2.846       2.865       2.875       2.879    
  13    2.196       2.200       2.209       2.222       2.241       2.267       2.301       2.343       2.396       2.447    
        2.481       2.503       2.516       2.524       2.527    
  14    2.107       2.109       2.114       2.121       2.131       2.145       2.162       2.179       2.188       2.204    
        2.219       2.229       2.235       2.239       2.241    
  15    2.014       2.014       2.015       2.016       2.017       2.019       2.020       2.021       2.021       2.022    
        2.023       2.024       2.024       2.024       2.025    
  16    2.051       2.053       2.058       2.063       2.069       2.072       2.070       2.064       2.059       2.054    
        2.050       2.047       2.045       2.044       2.044    
  17    2.086       2.090       2.098       2.109       2.122       2.130       2.121       2.107       2.094       2.083    
        2.075       2.069       2.065       2.062       2.061    
  18    2.115       2.121       2.133       2.152       2.178       2.203       2.176       2.147       2.125       2.108    
        2.096       2.087       2.081       2.077       2.076    
  19    2.136       2.143       2.159       2.185       2.231       2.328       2.228       2.179       2.148       2.126    
        2.111       2.100       2.093       2.088       2.086    
  20    2.147       2.155       2.171       2.197       2.232       2.264       2.228       2.190       2.159       2.136    
        2.119       2.107       2.099       2.094       2.091    

 HEAD WILL BE SAVED ON UNIT   51 AT END OF TIME STEP   58, STRESS PERIOD    3

 DRAWDOWN WILL BE SAVED ON UNIT   52 AT END OF TIME STEP   58, STRESS PERIOD    3
1
  VOLUMETRIC BUDGET FOR ENTIRE MODEL AT END OF TIME STEP   58, STRESS PERIOD   3
  ------------------------------------------------------------------------------

     CUMULATIVE VOLUMES      L**3       RATES FOR THIS TIME STEP      L**3/T
     ------------------                 ------------------------

           IN:                                      IN:
           ---                                      ---
             STORAGE =      127499.5078               STORAGE =         901.6613
       CONSTANT HEAD =       69797.2656         CONSTANT HEAD =           0.0000
               WELLS =       55400.0000                 WELLS =         600.0000
       RIVER LEAKAGE =      211534.9844         RIVER LEAKAGE =           0.0000

            TOTAL IN =      464231.7500              TOTAL IN =        1501.6613

          OUT:                                     OUT:
          ----                                     ----
             STORAGE =      247768.9688               STORAGE =           0.0000
       CONSTANT HEAD =       17663.6602         CONSTANT HEAD =         654.1560
               WELLS =       61400.0000                 WELLS =         100.0000
       RIVER LEAKAGE =      137399.1250         RIVER LEAKAGE =         747.5053

           TOTAL OUT =      464231.7500             TOTAL OUT =        1501.6614

            IN - OUT =           0.0000              IN - OUT =      -1.2207E-04

 PERCENT DISCREPANCY =           0.00     PERCENT DISCREPANCY =          -0.00






         TIME SUMMARY AT END OF TIME STEP   58 IN STRESS PERIOD    3
                    SECONDS     MINUTES      HOURS       DAYS        YEARS
                    -----------------------------------------------------------
   TIME STEP LENGTH  86400.      1440.0      24.000      1.0000     2.73785E-03
 STRESS PERIOD TIME 5.01120E+06  83520.      1392.0      58.000     0.15880    
         TOTAL TIME 1.37376E+07 2.28960E+05  3816.0      159.00     0.43532    
1
 
 SOLVING FOR HEAD 

 OUTPUT CONTROL FOR STRESS PERIOD    3   TIME STEP   59
    SAVE HEAD FOR ALL LAYERS
    SAVE DRAWDOWN FOR ALL LAYERS
    SAVE BUDGET
    PRINT HEAD FOR ALL LAYERS
    PRINT BUDGET
 UBDSV1 SAVING "         STORAGE" ON UNIT   1 AT TIME STEP 59, STRESS PERIOD   3
 UBDSV2 SAVING "   CONSTANT HEAD" ON UNIT   1 AT TIME STEP 59, STRESS PERIOD   3
 UBDSV1 SAVING "FLOW RIGHT FACE " ON UNIT   1 AT TIME STEP 59, STRESS PERIOD   3
 UBDSV1 SAVING "FLOW FRONT FACE " ON UNIT   1 AT TIME STEP 59, STRESS PERIOD   3
1
              HEAD IN LAYER   1 AT END OF TIME STEP  59 IN STRESS PERIOD    3
  ---------------------------------------------------------------------------

            1           2           3           4           5           6           7           8           9          10
           11          12          13          14          15
 ........................................................................................................................
   1    3.050       3.050       3.050       3.050       3.050       3.050       3.050       3.050       3.050       3.050    
        3.050       3.050       3.050       3.050       3.050    
   2    3.427       3.412       3.385       3.368       3.417       3.473       3.511       3.519       3.484       3.488    
        3.500       3.508       3.504       3.494       3.487    
   3    3.627       3.591       3.515       3.426       3.577       3.712       3.801       3.841       3.824       3.846    
        3.881       3.905       3.891       3.864       3.845    
   4    3.709       3.655       3.503       3.084       3.592       3.832       3.971       4.053       4.074       4.128    
        4.211       4.278       4.229       4.162       4.122    
   5    3.726       3.695       3.630       3.561       3.741       3.916       4.056       4.168       4.227       4.329    
        4.505       4.710       4.531       4.380       4.306    
   6    3.680       3.672       3.664       3.683       3.788       3.920       4.052       4.178       4.265       4.409    
        4.725       5.478       4.758       4.476       4.368    
   7    3.568       3.574       3.592       3.635       3.720       3.831       3.952       4.078       4.164       4.278    
        4.465       4.678       4.504       4.357       4.284    
   8    3.388       3.400       3.428       3.477       3.553       3.651       3.762       3.882       3.960       4.040    
        4.145       4.227       4.189       4.129       4.092    
   9    3.146       3.159       3.187       3.234       3.301       3.388       3.492       3.609       3.687       3.749    
        3.817       3.864       3.866       3.848       3.833    
  10    2.846       2.858       2.883       2.922       2.977       3.051       3.147       3.269       3.367       3.427    
        3.483       3.521       3.537       3.537       3.534    
  11    2.502       2.510       2.527       2.554       2.593       2.648       2.726       2.851       3.016       3.089    
        3.144       3.181       3.200       3.208       3.211    
  12    2.277       2.283       2.294       2.312       2.338       2.375       2.427       2.503       2.659       2.752    
        2.806       2.839       2.858       2.868       2.871    
  13    2.194       2.198       2.207       2.220       2.239       2.265       2.299       2.340       2.393       2.443    
        2.477       2.499       2.512       2.519       2.522    
  14    2.106       2.108       2.113       2.120       2.130       2.144       2.160       2.177       2.186       2.203    
        2.217       2.227       2.233       2.237       2.239    
  15    2.013       2.014       2.015       2.016       2.017       2.019       2.020       2.021       2.021       2.022    
        2.023       2.024       2.024       2.024       2.024    
  16    2.050       2.053       2.057       2.062       2.068       2.071       2.069       2.063       2.058       2.053    
        2.049       2.046       2.044       2.043       2.043    
  17    2.084       2.088       2.096       2.107       2.120       2.128       2.119       2.105       2.092       2.081    
        2.073       2.067       2.063       2.061       2.059    
  18    2.113       2.119       2.131       2.150       2.176       2.201       2.173       2.145       2.123       2.106    
        2.094       2.085       2.079       2.075       2.073    
  19    2.133       2.141       2.156       2.183       2.229       2.325       2.226       2.176       2.145       2.124    
        2.108       2.097       2.090       2.085       2.083    
  20    2.144       2.152       2.168       2.194       2.229       2.261       2.225       2.187       2.156       2.133    
        2.116       2.104       2.096       2.091       2.088    

 HEAD WILL BE SAVED ON UNIT   51 AT END OF TIME STEP   59, STRESS PERIOD    3

 DRAWDOWN WILL BE SAVED ON UNIT   52 AT END OF TIME STEP   59, STRESS PERIOD    3
1
  VOLUMETRIC BUDGET FOR ENTIRE MODEL AT END OF TIME STEP   59, STRESS PERIOD   3
  ------------------------------------------------------------------------------

     CUMULATIVE VOLUMES      L**3       RATES FOR THIS TIME STEP      L**3/T
     ------------------                 ------------------------

           IN:                                      IN:
           ---                                      ---
             STORAGE =      128402.3594               STORAGE =         902.8478
       CONSTANT HEAD =       69797.2656         CONSTANT HEAD =           0.0000
               WELLS =       56000.0000                 WELLS =         600.0000
       RIVER LEAKAGE =      211534.9844         RIVER LEAKAGE =           0.0000

            TOTAL IN =      465734.6250              TOTAL IN =        1502.8479

          OUT:                                     OUT:
          ----                                     ----
             STORAGE =      247768.9688               STORAGE =           0.0000
       CONSTANT HEAD =       18327.0859         CONSTANT HEAD =         663.4261
               WELLS =       61500.0000                 WELLS =         100.0000
       RIVER LEAKAGE =      138138.5469         RIVER LEAKAGE =         739.4209

           TOTAL OUT =      465734.6250             TOTAL OUT =        1502.8470

            IN - OUT =           0.0000              IN - OUT =       8.5449E-04

 PERCENT DISCREPANCY =           0.00     PERCENT DISCREPANCY =           0.00






         TIME SUMMARY AT END OF TIME STEP   59 IN STRESS PERIOD    3
                    SECONDS     MINUTES      HOURS       DAYS        YEARS
                    -----------------------------------------------------------
   TIME STEP LENGTH  86400.      1440.0      24.000      1.0000     2.73785E-03
 STRESS PERIOD TIME 5.09760E+06  84960.      1416.0      59.000     0.16153    
         TOTAL TIME 1.38240E+07 2.30400E+05  3840.0      160.00     0.43806    
1
 
 SOLVING FOR HEAD 

 OUTPUT CONTROL FOR STRESS PERIOD    3   TIME STEP   60
    SAVE HEAD FOR ALL LAYERS
    SAVE DRAWDOWN FOR ALL LAYERS
    SAVE BUDGET
    PRINT HEAD FOR ALL LAYERS
    PRINT BUDGET
 UBDSV1 SAVING "         STORAGE" ON UNIT   1 AT TIME STEP 60, STRESS PERIOD   3
 UBDSV2 SAVING "   CONSTANT HEAD" ON UNIT   1 AT TIME STEP 60, STRESS PERIOD   3
 UBDSV1 SAVING "FLOW RIGHT FACE " ON UNIT   1 AT TIME STEP 60, STRESS PERIOD   3
 UBDSV1 SAVING "FLOW FRONT FACE " ON UNIT   1 AT TIME STEP 60, STRESS PERIOD   3
1
              HEAD IN LAYER   1 AT END OF TIME STEP  60 IN STRESS PERIOD    3
  ---------------------------------------------------------------------------

            1           2           3           4           5           6           7           8           9          10
           11          12          13          14          15
 ........................................................................................................................
   1    3.000       3.000       3.000       3.000       3.000       3.000       3.000       3.000       3.000       3.000    
        3.000       3.000       3.000       3.000       3.000    
   2    3.386       3.370       3.344       3.327       3.375       3.430       3.468       3.475       3.439       3.443    
        3.455       3.463       3.460       3.450       3.443    
   3    3.594       3.557       3.482       3.392       3.543       3.677       3.765       3.803       3.786       3.807    
        3.842       3.866       3.852       3.825       3.806    
   4    3.683       3.628       3.476       3.056       3.564       3.803       3.940       4.021       4.040       4.094    
        4.178       4.244       4.195       4.128       4.088    
   5    3.705       3.674       3.609       3.539       3.718       3.891       4.030       4.140       4.198       4.300    
        4.476       4.681       4.501       4.350       4.276    
   6    3.664       3.656       3.647       3.665       3.769       3.900       4.030       4.155       4.240       4.384    
        4.700       5.452       4.732       4.450       4.342    
   7    3.555       3.560       3.577       3.620       3.704       3.814       3.934       4.058       4.143       4.257    
        4.444       4.656       4.482       4.335       4.261    
   8    3.377       3.389       3.416       3.465       3.540       3.636       3.747       3.865       3.943       4.022    
        4.126       4.208       4.170       4.110       4.073    
   9    3.137       3.150       3.178       3.224       3.291       3.376       3.479       3.595       3.673       3.734    
        3.801       3.849       3.850       3.832       3.818    
  10    2.840       2.851       2.876       2.914       2.969       3.042       3.137       3.258       3.356       3.415    
        3.470       3.509       3.524       3.524       3.521    
  11    2.498       2.506       2.523       2.550       2.588       2.643       2.720       2.843       3.008       3.080    
        3.134       3.171       3.191       3.199       3.201    
  12    2.275       2.280       2.291       2.309       2.335       2.371       2.423       2.498       2.653       2.746    
        2.800       2.832       2.851       2.861       2.864    
  13    2.193       2.197       2.205       2.218       2.237       2.262       2.296       2.338       2.389       2.439    
        2.473       2.495       2.508       2.515       2.518    
  14    2.105       2.107       2.112       2.119       2.129       2.143       2.159       2.176       2.184       2.201    
        2.215       2.225       2.231       2.235       2.237    
  15    2.013       2.014       2.014       2.016       2.017       2.018       2.020       2.021       2.021       2.022    
        2.023       2.023       2.024       2.024       2.024    
  16    2.050       2.052       2.056       2.061       2.067       2.070       2.068       2.062       2.057       2.052    
        2.048       2.045       2.043       2.042       2.042    
  17    2.083       2.087       2.095       2.106       2.119       2.127       2.118       2.104       2.091       2.080    
        2.072       2.066       2.062       2.059       2.058    
  18    2.111       2.117       2.129       2.148       2.173       2.199       2.171       2.143       2.120       2.104    
        2.091       2.083       2.077       2.073       2.071    
  19    2.131       2.138       2.154       2.180       2.226       2.323       2.223       2.174       2.143       2.121    
        2.106       2.095       2.088       2.083       2.081    
  20    2.141       2.149       2.166       2.192       2.226       2.258       2.223       2.184       2.153       2.130    
        2.113       2.101       2.093       2.088       2.086    

 HEAD WILL BE SAVED ON UNIT   51 AT END OF TIME STEP   60, STRESS PERIOD    3

 DRAWDOWN WILL BE SAVED ON UNIT   52 AT END OF TIME STEP   60, STRESS PERIOD    3
1
  VOLUMETRIC BUDGET FOR ENTIRE MODEL AT END OF TIME STEP   60, STRESS PERIOD   3
  ------------------------------------------------------------------------------

     CUMULATIVE VOLUMES      L**3       RATES FOR THIS TIME STEP      L**3/T
     ------------------                 ------------------------

           IN:                                      IN:
           ---                                      ---
             STORAGE =      129306.5234               STORAGE =         904.1617
       CONSTANT HEAD =       69797.2656         CONSTANT HEAD =           0.0000
               WELLS =       56600.0000                 WELLS =         600.0000
       RIVER LEAKAGE =      211534.9844         RIVER LEAKAGE =           0.0000

            TOTAL IN =      467238.7500              TOTAL IN =        1504.1616

          OUT:                                     OUT:
          ----                                     ----
             STORAGE =      247768.9688               STORAGE =           0.0000
       CONSTANT HEAD =       18999.6387         CONSTANT HEAD =         672.5521
               WELLS =       61600.0000                 WELLS =         100.0000
       RIVER LEAKAGE =      138870.1562         RIVER LEAKAGE =         731.6107

           TOTAL OUT =      467238.7500             TOTAL OUT =        1504.1628

            IN - OUT =           0.0000              IN - OUT =      -1.2207E-03

 PERCENT DISCREPANCY =           0.00     PERCENT DISCREPANCY =          -0.00






         TIME SUMMARY AT END OF TIME STEP   60 IN STRESS PERIOD    3
                    SECONDS     MINUTES      HOURS       DAYS        YEARS
                    -----------------------------------------------------------
   TIME STEP LENGTH  86400.      1440.0      24.000      1.0000     2.73785E-03
 STRESS PERIOD TIME 5.18400E+06  86400.      1440.0      60.000     0.16427    
         TOTAL TIME 1.39104E+07 2.31840E+05  3864.0      161.00     0.44079    
1
 
 SOLVING FOR HEAD 

 OUTPUT CONTROL FOR STRESS PERIOD    3   TIME STEP   61
    SAVE HEAD FOR ALL LAYERS
    SAVE DRAWDOWN FOR ALL LAYERS
    SAVE BUDGET
    PRINT HEAD FOR ALL LAYERS
    PRINT BUDGET
 UBDSV1 SAVING "         STORAGE" ON UNIT   1 AT TIME STEP 61, STRESS PERIOD   3
 UBDSV2 SAVING "   CONSTANT HEAD" ON UNIT   1 AT TIME STEP 61, STRESS PERIOD   3
 UBDSV1 SAVING "FLOW RIGHT FACE " ON UNIT   1 AT TIME STEP 61, STRESS PERIOD   3
 UBDSV1 SAVING "FLOW FRONT FACE " ON UNIT   1 AT TIME STEP 61, STRESS PERIOD   3
1
              HEAD IN LAYER   1 AT END OF TIME STEP  61 IN STRESS PERIOD    3
  ---------------------------------------------------------------------------

            1           2           3           4           5           6           7           8           9          10
           11          12          13          14          15
 ........................................................................................................................
   1    2.950       2.950       2.950       2.950       2.950       2.950       2.950       2.950       2.950       2.950    
        2.950       2.950       2.950       2.950       2.950    
   2    3.345       3.329       3.302       3.285       3.332       3.388       3.425       3.431       3.395       3.399    
        3.411       3.419       3.415       3.405       3.398    
   3    3.561       3.524       3.448       3.358       3.508       3.641       3.728       3.766       3.747       3.768    
        3.803       3.827       3.813       3.785       3.767    
   4    3.657       3.602       3.448       3.028       3.535       3.773       3.910       3.989       4.007       4.061    
        4.144       4.210       4.161       4.094       4.053    
   5    3.685       3.653       3.587       3.516       3.694       3.867       4.004       4.113       4.170       4.270    
        4.447       4.651       4.472       4.320       4.246    
   6    3.647       3.639       3.629       3.647       3.750       3.879       4.008       4.131       4.216       4.359    
        4.674       5.427       4.706       4.424       4.316    
   7    3.541       3.546       3.563       3.605       3.688       3.796       3.915       4.038       4.122       4.235    
        4.422       4.634       4.460       4.312       4.239    
   8    3.366       3.378       3.404       3.452       3.526       3.622       3.731       3.848       3.925       4.004    
        4.108       4.190       4.152       4.091       4.054    
   9    3.128       3.141       3.168       3.214       3.280       3.365       3.467       3.581       3.658       3.719    
        3.786       3.833       3.835       3.816       3.802    
  10    2.833       2.845       2.868       2.907       2.961       3.034       3.128       3.248       3.344       3.403    
        3.458       3.496       3.511       3.512       3.509    
  11    2.494       2.502       2.518       2.545       2.583       2.637       2.714       2.836       2.999       3.071    
        3.125       3.161       3.181       3.189       3.191    
  12    2.273       2.278       2.289       2.306       2.332       2.368       2.419       2.494       2.648       2.740    
        2.793       2.826       2.844       2.854       2.857    
  13    2.191       2.195       2.203       2.216       2.235       2.260       2.294       2.335       2.386       2.435    
        2.469       2.491       2.504       2.511       2.514    
  14    2.104       2.106       2.111       2.118       2.128       2.141       2.158       2.174       2.183       2.199    
        2.213       2.223       2.229       2.233       2.235    
  15    2.013       2.014       2.014       2.015       2.017       2.018       2.019       2.020       2.021       2.022    
        2.022       2.023       2.023       2.024       2.024    
  16    2.049       2.051       2.055       2.060       2.066       2.069       2.067       2.062       2.056       2.051    
        2.047       2.045       2.043       2.041       2.041    
  17    2.081       2.085       2.093       2.105       2.117       2.125       2.116       2.102       2.089       2.078    
        2.070       2.064       2.060       2.058       2.056    
  18    2.109       2.115       2.127       2.146       2.172       2.197       2.169       2.141       2.119       2.102    
        2.090       2.081       2.075       2.071       2.069    
  19    2.129       2.136       2.152       2.178       2.224       2.321       2.221       2.172       2.140       2.119    
        2.104       2.093       2.085       2.081       2.078    
  20    2.139       2.147       2.163       2.189       2.224       2.256       2.220       2.182       2.151       2.128    
        2.111       2.099       2.091       2.086       2.083    

 HEAD WILL BE SAVED ON UNIT   51 AT END OF TIME STEP   61, STRESS PERIOD    3

 DRAWDOWN WILL BE SAVED ON UNIT   52 AT END OF TIME STEP   61, STRESS PERIOD    3
1
  VOLUMETRIC BUDGET FOR ENTIRE MODEL AT END OF TIME STEP   61, STRESS PERIOD   3
  ------------------------------------------------------------------------------

     CUMULATIVE VOLUMES      L**3       RATES FOR THIS TIME STEP      L**3/T
     ------------------                 ------------------------

           IN:                                      IN:
           ---                                      ---
             STORAGE =      130212.1094               STORAGE =         905.5878
       CONSTANT HEAD =       69797.2656         CONSTANT HEAD =           0.0000
               WELLS =       57200.0000                 WELLS =         600.0000
       RIVER LEAKAGE =      211534.9844         RIVER LEAKAGE =           0.0000

            TOTAL IN =      468744.3750              TOTAL IN =        1505.5878

          OUT:                                     OUT:
          ----                                     ----
             STORAGE =      247768.9688               STORAGE =           0.0000
       CONSTANT HEAD =       19681.1797         CONSTANT HEAD =         681.5417
               WELLS =       61700.0000                 WELLS =         100.0000
       RIVER LEAKAGE =      139594.2031         RIVER LEAKAGE =         724.0474

           TOTAL OUT =      468744.3750             TOTAL OUT =        1505.5891

            IN - OUT =           0.0000              IN - OUT =      -1.3428E-03

 PERCENT DISCREPANCY =           0.00     PERCENT DISCREPANCY =          -0.00






         TIME SUMMARY AT END OF TIME STEP   61 IN STRESS PERIOD    3
                    SECONDS     MINUTES      HOURS       DAYS        YEARS
                    -----------------------------------------------------------
   TIME STEP LENGTH  86400.      1440.0      24.000      1.0000     2.73785E-03
 STRESS PERIOD TIME 5.27040E+06  87840.      1464.0      61.000     0.16701    
         TOTAL TIME 1.39968E+07 2.33280E+05  3888.0      162.00     0.44353    
1
 
 SOLVING FOR HEAD 

 OUTPUT CONTROL FOR STRESS PERIOD    3   TIME STEP   62
    SAVE HEAD FOR ALL LAYERS
    SAVE DRAWDOWN FOR ALL LAYERS
    SAVE BUDGET
    PRINT HEAD FOR ALL LAYERS
    PRINT BUDGET
 UBDSV1 SAVING "         STORAGE" ON UNIT   1 AT TIME STEP 62, STRESS PERIOD   3
 UBDSV2 SAVING "   CONSTANT HEAD" ON UNIT   1 AT TIME STEP 62, STRESS PERIOD   3
 UBDSV1 SAVING "FLOW RIGHT FACE " ON UNIT   1 AT TIME STEP 62, STRESS PERIOD   3
 UBDSV1 SAVING "FLOW FRONT FACE " ON UNIT   1 AT TIME STEP 62, STRESS PERIOD   3
1
              HEAD IN LAYER   1 AT END OF TIME STEP  62 IN STRESS PERIOD    3
  ---------------------------------------------------------------------------

            1           2           3           4           5           6           7           8           9          10
           11          12          13          14          15
 ........................................................................................................................
   1    2.900       2.900       2.900       2.900       2.900       2.900       2.900       2.900       2.900       2.900    
        2.900       2.900       2.900       2.900       2.900    
   2    3.304       3.288       3.260       3.243       3.290       3.345       3.382       3.388       3.351       3.355    
        3.367       3.375       3.370       3.361       3.354    
   3    3.527       3.490       3.414       3.323       3.472       3.605       3.692       3.728       3.708       3.729    
        3.764       3.788       3.774       3.746       3.727    
   4    3.630       3.575       3.421       3.000       3.506       3.743       3.878       3.956       3.973       4.027    
        4.109       4.175       4.126       4.059       4.019    
   5    3.663       3.631       3.565       3.493       3.671       3.842       3.978       4.085       4.141       4.241    
        4.417       4.621       4.442       4.290       4.215    
   6    3.630       3.621       3.611       3.628       3.730       3.858       3.986       4.108       4.191       4.334    
        4.649       5.401       4.680       4.398       4.290    
   7    3.527       3.532       3.549       3.590       3.672       3.779       3.896       4.018       4.101       4.214    
        4.400       4.612       4.438       4.290       4.217    
   8    3.355       3.366       3.393       3.440       3.513       3.607       3.716       3.831       3.907       3.986    
        4.090       4.171       4.133       4.072       4.035    
   9    3.119       3.132       3.159       3.204       3.269       3.353       3.454       3.567       3.643       3.704    
        3.771       3.818       3.819       3.800       3.786    
  10    2.826       2.838       2.861       2.899       2.953       3.025       3.118       3.237       3.333       3.391    
        3.446       3.484       3.499       3.499       3.496    
  11    2.490       2.497       2.514       2.540       2.578       2.632       2.708       2.829       2.991       3.062    
        3.116       3.152       3.171       3.179       3.181    
  12    2.270       2.275       2.286       2.304       2.329       2.365       2.416       2.490       2.642       2.734    
        2.786       2.819       2.837       2.846       2.850    
  13    2.189       2.193       2.201       2.214       2.232       2.258       2.291       2.332       2.383       2.432    
        2.465       2.487       2.500       2.507       2.510    
  14    2.103       2.105       2.110       2.117       2.127       2.140       2.156       2.173       2.181       2.197    
        2.211       2.221       2.227       2.231       2.233    
  15    2.013       2.013       2.014       2.015       2.017       2.018       2.019       2.020       2.020       2.021    
        2.022       2.023       2.023       2.023       2.024    
  16    2.048       2.050       2.054       2.060       2.065       2.069       2.066       2.061       2.055       2.050    
        2.046       2.044       2.042       2.041       2.040    
  17    2.080       2.084       2.092       2.103       2.116       2.124       2.115       2.101       2.088       2.077    
        2.069       2.063       2.059       2.056       2.055    
  18    2.107       2.113       2.125       2.144       2.170       2.196       2.168       2.139       2.117       2.100    
        2.088       2.079       2.073       2.069       2.067    
  19    2.127       2.134       2.150       2.176       2.222       2.319       2.219       2.169       2.138       2.117    
        2.101       2.091       2.083       2.079       2.076    
  20    2.137       2.145       2.161       2.187       2.222       2.254       2.218       2.179       2.148       2.125    
        2.108       2.097       2.088       2.083       2.081    

 HEAD WILL BE SAVED ON UNIT   51 AT END OF TIME STEP   62, STRESS PERIOD    3

 DRAWDOWN WILL BE SAVED ON UNIT   52 AT END OF TIME STEP   62, STRESS PERIOD    3
1
  VOLUMETRIC BUDGET FOR ENTIRE MODEL AT END OF TIME STEP   62, STRESS PERIOD   3
  ------------------------------------------------------------------------------

     CUMULATIVE VOLUMES      L**3       RATES FOR THIS TIME STEP      L**3/T
     ------------------                 ------------------------

           IN:                                      IN:
           ---                                      ---
             STORAGE =      131119.2188               STORAGE =         907.1119
       CONSTANT HEAD =       69797.2656         CONSTANT HEAD =           0.0000
               WELLS =       57800.0000                 WELLS =         600.0000
       RIVER LEAKAGE =      211534.9844         RIVER LEAKAGE =           0.0000

            TOTAL IN =      470251.4688              TOTAL IN =        1507.1118

          OUT:                                     OUT:
          ----                                     ----
             STORAGE =      247768.9688               STORAGE =           0.0000
       CONSTANT HEAD =       20371.5820         CONSTANT HEAD =         690.4023
               WELLS =       61800.0000                 WELLS =         100.0000
       RIVER LEAKAGE =      140310.9062         RIVER LEAKAGE =         716.7101

           TOTAL OUT =      470251.4688             TOTAL OUT =        1507.1124

            IN - OUT =           0.0000              IN - OUT =      -6.1035E-04

 PERCENT DISCREPANCY =           0.00     PERCENT DISCREPANCY =          -0.00






         TIME SUMMARY AT END OF TIME STEP   62 IN STRESS PERIOD    3
                    SECONDS     MINUTES      HOURS       DAYS        YEARS
                    -----------------------------------------------------------
   TIME STEP LENGTH  86400.      1440.0      24.000      1.0000     2.73785E-03
 STRESS PERIOD TIME 5.35680E+06  89280.      1488.0      62.000     0.16975    
         TOTAL TIME 1.40832E+07 2.34720E+05  3912.0      163.00     0.44627    
1
 
 SOLVING FOR HEAD 

 OUTPUT CONTROL FOR STRESS PERIOD    3   TIME STEP   63
    SAVE HEAD FOR ALL LAYERS
    SAVE DRAWDOWN FOR ALL LAYERS
    SAVE BUDGET
    PRINT HEAD FOR ALL LAYERS
    PRINT BUDGET
 UBDSV1 SAVING "         STORAGE" ON UNIT   1 AT TIME STEP 63, STRESS PERIOD   3
 UBDSV2 SAVING "   CONSTANT HEAD" ON UNIT   1 AT TIME STEP 63, STRESS PERIOD   3
 UBDSV1 SAVING "FLOW RIGHT FACE " ON UNIT   1 AT TIME STEP 63, STRESS PERIOD   3
 UBDSV1 SAVING "FLOW FRONT FACE " ON UNIT   1 AT TIME STEP 63, STRESS PERIOD   3
1
              HEAD IN LAYER   1 AT END OF TIME STEP  63 IN STRESS PERIOD    3
  ---------------------------------------------------------------------------

            1           2           3           4           5           6           7           8           9          10
           11          12          13          14          15
 ........................................................................................................................
   1    2.850       2.850       2.850       2.850       2.850       2.850       2.850       2.850       2.850       2.850    
        2.850       2.850       2.850       2.850       2.850    
   2    3.262       3.246       3.219       3.201       3.248       3.302       3.339       3.344       3.307       3.310    
        3.322       3.330       3.326       3.316       3.309    
   3    3.493       3.456       3.379       3.288       3.437       3.569       3.655       3.690       3.670       3.690    
        3.725       3.748       3.734       3.706       3.688    
   4    3.603       3.547       3.393       2.971       3.477       3.713       3.847       3.923       3.940       3.993    
        4.075       4.141       4.091       4.024       3.984    
   5    3.642       3.609       3.543       3.470       3.647       3.816       3.952       4.057       4.112       4.211    
        4.387       4.592       4.411       4.260       4.185    
   6    3.613       3.604       3.593       3.609       3.710       3.837       3.964       4.084       4.166       4.308    
        4.623       5.376       4.654       4.372       4.264    
   7    3.514       3.518       3.534       3.575       3.656       3.761       3.878       3.998       4.080       4.192    
        4.378       4.590       4.415       4.267       4.194    
   8    3.344       3.355       3.381       3.427       3.499       3.593       3.700       3.814       3.889       3.968    
        4.071       4.152       4.114       4.053       4.016    
   9    3.110       3.122       3.149       3.194       3.258       3.341       3.441       3.554       3.629       3.689    
        3.755       3.802       3.803       3.784       3.770    
  10    2.820       2.831       2.854       2.892       2.945       3.016       3.108       3.226       3.321       3.379    
        3.433       3.471       3.486       3.486       3.483    
  11    2.486       2.493       2.510       2.536       2.573       2.626       2.702       2.822       2.982       3.053    
        3.106       3.142       3.161       3.169       3.171    
  12    2.268       2.273       2.284       2.301       2.326       2.362       2.412       2.486       2.637       2.727    
        2.780       2.812       2.830       2.839       2.843    
  13    2.188       2.192       2.200       2.212       2.230       2.256       2.289       2.329       2.379       2.428    
        2.461       2.482       2.495       2.502       2.505    
  14    2.102       2.104       2.109       2.116       2.126       2.139       2.155       2.171       2.180       2.196    
        2.209       2.219       2.226       2.229       2.231    
  15    2.013       2.013       2.014       2.015       2.016       2.018       2.019       2.020       2.020       2.021    
        2.022       2.023       2.023       2.023       2.023    
  16    2.047       2.049       2.053       2.059       2.065       2.068       2.065       2.060       2.054       2.049    
        2.046       2.043       2.041       2.040       2.039    
  17    2.079       2.083       2.091       2.102       2.115       2.123       2.114       2.100       2.087       2.076    
        2.068       2.062       2.058       2.055       2.054    
  18    2.106       2.111       2.123       2.142       2.168       2.194       2.166       2.137       2.115       2.098    
        2.086       2.077       2.071       2.068       2.066    
  19    2.125       2.132       2.148       2.174       2.220       2.317       2.217       2.168       2.136       2.115    
        2.099       2.089       2.081       2.077       2.074    
  20    2.135       2.143       2.159       2.185       2.220       2.251       2.216       2.177       2.146       2.123    
        2.106       2.094       2.086       2.081       2.079    

 HEAD WILL BE SAVED ON UNIT   51 AT END OF TIME STEP   63, STRESS PERIOD    3

 DRAWDOWN WILL BE SAVED ON UNIT   52 AT END OF TIME STEP   63, STRESS PERIOD    3
1
  VOLUMETRIC BUDGET FOR ENTIRE MODEL AT END OF TIME STEP   63, STRESS PERIOD   3
  ------------------------------------------------------------------------------

     CUMULATIVE VOLUMES      L**3       RATES FOR THIS TIME STEP      L**3/T
     ------------------                 ------------------------

           IN:                                      IN:
           ---                                      ---
             STORAGE =      132027.9375               STORAGE =         908.7208
       CONSTANT HEAD =       69797.2656         CONSTANT HEAD =           0.0000
               WELLS =       58400.0000                 WELLS =         600.0000
       RIVER LEAKAGE =      211534.9844         RIVER LEAKAGE =           0.0000

            TOTAL IN =      471760.1875              TOTAL IN =        1508.7207

          OUT:                                     OUT:
          ----                                     ----
             STORAGE =      247768.9688               STORAGE =           0.0000
       CONSTANT HEAD =       21070.7246         CONSTANT HEAD =         699.1426
               WELLS =       61900.0000                 WELLS =         100.0000
       RIVER LEAKAGE =      141020.4844         RIVER LEAKAGE =         709.5787

           TOTAL OUT =      471760.1875             TOTAL OUT =        1508.7213

            IN - OUT =           0.0000              IN - OUT =      -6.1035E-04

 PERCENT DISCREPANCY =           0.00     PERCENT DISCREPANCY =          -0.00






         TIME SUMMARY AT END OF TIME STEP   63 IN STRESS PERIOD    3
                    SECONDS     MINUTES      HOURS       DAYS        YEARS
                    -----------------------------------------------------------
   TIME STEP LENGTH  86400.      1440.0      24.000      1.0000     2.73785E-03
 STRESS PERIOD TIME 5.44320E+06  90720.      1512.0      63.000     0.17248    
         TOTAL TIME 1.41696E+07 2.36160E+05  3936.0      164.00     0.44901    
1
 
 SOLVING FOR HEAD 

 OUTPUT CONTROL FOR STRESS PERIOD    3   TIME STEP   64
    SAVE HEAD FOR ALL LAYERS
    SAVE DRAWDOWN FOR ALL LAYERS
    SAVE BUDGET
    PRINT HEAD FOR ALL LAYERS
    PRINT BUDGET
 UBDSV1 SAVING "         STORAGE" ON UNIT   1 AT TIME STEP 64, STRESS PERIOD   3
 UBDSV2 SAVING "   CONSTANT HEAD" ON UNIT   1 AT TIME STEP 64, STRESS PERIOD   3
 UBDSV1 SAVING "FLOW RIGHT FACE " ON UNIT   1 AT TIME STEP 64, STRESS PERIOD   3
 UBDSV1 SAVING "FLOW FRONT FACE " ON UNIT   1 AT TIME STEP 64, STRESS PERIOD   3
1
              HEAD IN LAYER   1 AT END OF TIME STEP  64 IN STRESS PERIOD    3
  ---------------------------------------------------------------------------

            1           2           3           4           5           6           7           8           9          10
           11          12          13          14          15
 ........................................................................................................................
   1    2.800       2.800       2.800       2.800       2.800       2.800       2.800       2.800       2.800       2.800    
        2.800       2.800       2.800       2.800       2.800    
   2    3.220       3.204       3.177       3.159       3.205       3.259       3.296       3.300       3.263       3.266    
        3.278       3.285       3.281       3.271       3.264    
   3    3.459       3.422       3.345       3.253       3.401       3.533       3.618       3.652       3.631       3.651    
        3.685       3.709       3.694       3.667       3.648    
   4    3.576       3.520       3.365       2.942       3.447       3.682       3.816       3.891       3.906       3.958    
        4.041       4.106       4.057       3.989       3.949    
   5    3.620       3.587       3.520       3.447       3.622       3.791       3.925       4.029       4.082       4.182    
        4.357       4.561       4.381       4.229       4.154    
   6    3.596       3.586       3.575       3.590       3.690       3.816       3.941       4.060       4.141       4.283    
        4.597       5.350       4.628       4.345       4.237    
   7    3.499       3.504       3.519       3.559       3.639       3.744       3.859       3.977       4.058       4.170    
        4.356       4.568       4.393       4.245       4.171    
   8    3.333       3.343       3.368       3.414       3.486       3.578       3.684       3.797       3.871       3.949    
        4.052       4.133       4.095       4.034       3.996    
   9    3.101       3.113       3.140       3.184       3.247       3.329       3.428       3.540       3.614       3.674    
        3.740       3.786       3.787       3.768       3.754    
  10    2.813       2.824       2.847       2.884       2.937       3.007       3.099       3.216       3.309       3.367    
        3.421       3.458       3.473       3.473       3.470    
  11    2.482       2.489       2.505       2.531       2.568       2.621       2.696       2.815       2.974       3.044    
        3.097       3.132       3.151       3.159       3.161    
  12    2.266       2.271       2.281       2.299       2.324       2.359       2.409       2.482       2.631       2.721    
        2.773       2.805       2.823       2.832       2.836    
  13    2.186       2.190       2.198       2.210       2.228       2.253       2.286       2.326       2.376       2.424    
        2.457       2.478       2.491       2.498       2.501    
  14    2.101       2.103       2.108       2.115       2.125       2.138       2.153       2.170       2.178       2.194    
        2.208       2.217       2.224       2.227       2.229    
  15    2.013       2.013       2.014       2.015       2.016       2.018       2.019       2.020       2.020       2.021    
        2.022       2.022       2.023       2.023       2.023    
  16    2.047       2.049       2.053       2.058       2.064       2.067       2.065       2.059       2.054       2.049    
        2.045       2.042       2.040       2.039       2.038    
  17    2.078       2.082       2.090       2.101       2.114       2.122       2.113       2.099       2.085       2.075    
        2.066       2.060       2.056       2.054       2.052    
  18    2.104       2.110       2.122       2.141       2.167       2.192       2.164       2.136       2.114       2.097    
        2.084       2.076       2.070       2.066       2.064    
  19    2.123       2.130       2.146       2.172       2.218       2.315       2.215       2.166       2.135       2.113    
        2.098       2.087       2.079       2.075       2.072    
  20    2.133       2.141       2.157       2.183       2.218       2.249       2.214       2.175       2.144       2.121    
        2.104       2.092       2.084       2.079       2.077    

 HEAD WILL BE SAVED ON UNIT   51 AT END OF TIME STEP   64, STRESS PERIOD    3

 DRAWDOWN WILL BE SAVED ON UNIT   52 AT END OF TIME STEP   64, STRESS PERIOD    3
1
  VOLUMETRIC BUDGET FOR ENTIRE MODEL AT END OF TIME STEP   64, STRESS PERIOD   3
  ------------------------------------------------------------------------------

     CUMULATIVE VOLUMES      L**3       RATES FOR THIS TIME STEP      L**3/T
     ------------------                 ------------------------

           IN:                                      IN:
           ---                                      ---
             STORAGE =      132938.3438               STORAGE =         910.4037
       CONSTANT HEAD =       69797.2656         CONSTANT HEAD =           0.0000
               WELLS =       59000.0000                 WELLS =         600.0000
       RIVER LEAKAGE =      211534.9844         RIVER LEAKAGE =           0.0000

            TOTAL IN =      473270.5938              TOTAL IN =        1510.4037

          OUT:                                     OUT:
          ----                                     ----
             STORAGE =      247768.9688               STORAGE =           0.0000
       CONSTANT HEAD =       21778.4922         CONSTANT HEAD =         707.7680
               WELLS =       62000.0000                 WELLS =         100.0000
       RIVER LEAKAGE =      141723.1250         RIVER LEAKAGE =         702.6356

           TOTAL OUT =      473270.5938             TOTAL OUT =        1510.4036

            IN - OUT =           0.0000              IN - OUT =       1.2207E-04

 PERCENT DISCREPANCY =           0.00     PERCENT DISCREPANCY =           0.00






         TIME SUMMARY AT END OF TIME STEP   64 IN STRESS PERIOD    3
                    SECONDS     MINUTES      HOURS       DAYS        YEARS
                    -----------------------------------------------------------
   TIME STEP LENGTH  86400.      1440.0      24.000      1.0000     2.73785E-03
 STRESS PERIOD TIME 5.52960E+06  92160.      1536.0      64.000     0.17522    
         TOTAL TIME 1.42560E+07 2.37600E+05  3960.0      165.00     0.45175    
1
 
 SOLVING FOR HEAD 

 OUTPUT CONTROL FOR STRESS PERIOD    3   TIME STEP   65
    SAVE HEAD FOR ALL LAYERS
    SAVE DRAWDOWN FOR ALL LAYERS
    SAVE BUDGET
    PRINT HEAD FOR ALL LAYERS
    PRINT BUDGET
 UBDSV1 SAVING "         STORAGE" ON UNIT   1 AT TIME STEP 65, STRESS PERIOD   3
 UBDSV2 SAVING "   CONSTANT HEAD" ON UNIT   1 AT TIME STEP 65, STRESS PERIOD   3
 UBDSV1 SAVING "FLOW RIGHT FACE " ON UNIT   1 AT TIME STEP 65, STRESS PERIOD   3
 UBDSV1 SAVING "FLOW FRONT FACE " ON UNIT   1 AT TIME STEP 65, STRESS PERIOD   3
1
              HEAD IN LAYER   1 AT END OF TIME STEP  65 IN STRESS PERIOD    3
  ---------------------------------------------------------------------------

            1           2           3           4           5           6           7           8           9          10
           11          12          13          14          15
 ........................................................................................................................
   1    2.750       2.750       2.750       2.750       2.750       2.750       2.750       2.750       2.750       2.750    
        2.750       2.750       2.750       2.750       2.750    
   2    3.179       3.162       3.135       3.116       3.163       3.217       3.253       3.256       3.218       3.222    
        3.233       3.241       3.237       3.227       3.220    
   3    3.425       3.388       3.310       3.218       3.366       3.496       3.580       3.614       3.592       3.612    
        3.646       3.669       3.655       3.627       3.608    
   4    3.548       3.492       3.337       2.913       3.418       3.652       3.784       3.858       3.872       3.924    
        4.006       4.071       4.022       3.954       3.914    
   5    3.598       3.565       3.497       3.423       3.598       3.766       3.898       4.000       4.053       4.152    
        4.327       4.531       4.351       4.199       4.124    
   6    3.578       3.568       3.557       3.571       3.670       3.795       3.918       4.036       4.115       4.257    
        4.572       5.324       4.602       4.319       4.211    
   7    3.485       3.489       3.504       3.543       3.622       3.726       3.840       3.957       4.037       4.148    
        4.334       4.545       4.370       4.222       4.148    
   8    3.321       3.332       3.356       3.401       3.472       3.563       3.668       3.780       3.853       3.931    
        4.033       4.114       4.075       4.014       3.977    
   9    3.092       3.104       3.130       3.173       3.236       3.318       3.416       3.526       3.599       3.659    
        3.724       3.770       3.771       3.752       3.737    
  10    2.807       2.817       2.840       2.877       2.929       2.999       3.089       3.205       3.298       3.355    
        3.408       3.446       3.460       3.460       3.457    
  11    2.478       2.485       2.501       2.527       2.564       2.615       2.690       2.808       2.965       3.035    
        3.087       3.122       3.141       3.148       3.150    
  12    2.263       2.268       2.279       2.296       2.321       2.356       2.405       2.477       2.626       2.715    
        2.766       2.798       2.816       2.825       2.828    
  13    2.184       2.188       2.196       2.209       2.227       2.251       2.284       2.323       2.373       2.421    
        2.453       2.474       2.487       2.494       2.497    
  14    2.100       2.102       2.107       2.114       2.123       2.136       2.152       2.168       2.177       2.192    
        2.206       2.216       2.222       2.225       2.227    
  15    2.013       2.013       2.014       2.015       2.016       2.017       2.019       2.020       2.020       2.021    
        2.022       2.022       2.023       2.023       2.023    
  16    2.046       2.048       2.052       2.058       2.063       2.067       2.064       2.059       2.053       2.048    
        2.044       2.041       2.040       2.038       2.038    
  17    2.077       2.081       2.089       2.100       2.113       2.121       2.112       2.098       2.084       2.073    
        2.065       2.059       2.055       2.053       2.051    
  18    2.103       2.108       2.121       2.139       2.165       2.191       2.163       2.135       2.112       2.095    
        2.083       2.074       2.068       2.064       2.063    
  19    2.121       2.129       2.144       2.171       2.217       2.313       2.214       2.164       2.133       2.111    
        2.096       2.085       2.078       2.073       2.071    
  20    2.131       2.139       2.155       2.181       2.216       2.248       2.212       2.173       2.142       2.119    
        2.103       2.091       2.082       2.077       2.075    

 HEAD WILL BE SAVED ON UNIT   51 AT END OF TIME STEP   65, STRESS PERIOD    3

 DRAWDOWN WILL BE SAVED ON UNIT   52 AT END OF TIME STEP   65, STRESS PERIOD    3
1
  VOLUMETRIC BUDGET FOR ENTIRE MODEL AT END OF TIME STEP   65, STRESS PERIOD   3
  ------------------------------------------------------------------------------

     CUMULATIVE VOLUMES      L**3       RATES FOR THIS TIME STEP      L**3/T
     ------------------                 ------------------------

           IN:                                      IN:
           ---                                      ---
             STORAGE =      133850.5000               STORAGE =         912.1494
       CONSTANT HEAD =       69797.2656         CONSTANT HEAD =           0.0000
               WELLS =       59600.0000                 WELLS =         600.0000
       RIVER LEAKAGE =      211534.9844         RIVER LEAKAGE =           0.0000

            TOTAL IN =      474782.7500              TOTAL IN =        1512.1494

          OUT:                                     OUT:
          ----                                     ----
             STORAGE =      247768.9688               STORAGE =           0.0000
       CONSTANT HEAD =       22494.7793         CONSTANT HEAD =         716.2862
               WELLS =       62100.0000                 WELLS =         100.0000
       RIVER LEAKAGE =      142418.9844         RIVER LEAKAGE =         695.8637

           TOTAL OUT =      474782.7500             TOTAL OUT =        1512.1499

            IN - OUT =           0.0000              IN - OUT =      -4.8828E-04

 PERCENT DISCREPANCY =           0.00     PERCENT DISCREPANCY =          -0.00






         TIME SUMMARY AT END OF TIME STEP   65 IN STRESS PERIOD    3
                    SECONDS     MINUTES      HOURS       DAYS        YEARS
                    -----------------------------------------------------------
   TIME STEP LENGTH  86400.      1440.0      24.000      1.0000     2.73785E-03
 STRESS PERIOD TIME 5.61600E+06  93600.      1560.0      65.000     0.17796    
         TOTAL TIME 1.43424E+07 2.39040E+05  3984.0      166.00     0.45448    
1
 
 SOLVING FOR HEAD 

 OUTPUT CONTROL FOR STRESS PERIOD    3   TIME STEP   66
    SAVE HEAD FOR ALL LAYERS
    SAVE DRAWDOWN FOR ALL LAYERS
    SAVE BUDGET
    PRINT HEAD FOR ALL LAYERS
    PRINT BUDGET
 UBDSV1 SAVING "         STORAGE" ON UNIT   1 AT TIME STEP 66, STRESS PERIOD   3
 UBDSV2 SAVING "   CONSTANT HEAD" ON UNIT   1 AT TIME STEP 66, STRESS PERIOD   3
 UBDSV1 SAVING "FLOW RIGHT FACE " ON UNIT   1 AT TIME STEP 66, STRESS PERIOD   3
 UBDSV1 SAVING "FLOW FRONT FACE " ON UNIT   1 AT TIME STEP 66, STRESS PERIOD   3
1
              HEAD IN LAYER   1 AT END OF TIME STEP  66 IN STRESS PERIOD    3
  ---------------------------------------------------------------------------

            1           2           3           4           5           6           7           8           9          10
           11          12          13          14          15
 ........................................................................................................................
   1    2.700       2.700       2.700       2.700       2.700       2.700       2.700       2.700       2.700       2.700    
        2.700       2.700       2.700       2.700       2.700    
   2    3.137       3.121       3.092       3.074       3.120       3.174       3.209       3.212       3.174       3.177    
        3.188       3.196       3.192       3.182       3.175    
   3    3.391       3.353       3.275       3.183       3.330       3.460       3.543       3.575       3.553       3.572    
        3.607       3.630       3.615       3.587       3.568    
   4    3.520       3.464       3.308       2.883       3.388       3.621       3.752       3.825       3.838       3.890    
        3.971       4.037       3.987       3.919       3.879    
   5    3.576       3.542       3.474       3.399       3.573       3.740       3.871       3.972       4.023       4.122    
        4.297       4.501       4.320       4.168       4.093    
   6    3.560       3.550       3.538       3.551       3.650       3.773       3.896       4.011       4.090       4.231    
        4.546       5.298       4.576       4.292       4.184    
   7    3.471       3.475       3.489       3.527       3.606       3.708       3.821       3.936       4.015       4.126    
        4.311       4.523       4.348       4.199       4.125    
   8    3.309       3.320       3.344       3.389       3.458       3.549       3.653       3.763       3.835       3.912    
        4.015       4.095       4.056       3.995       3.957    
   9    3.083       3.095       3.120       3.163       3.225       3.306       3.403       3.512       3.584       3.643    
        3.709       3.755       3.755       3.736       3.721    
  10    2.800       2.811       2.833       2.869       2.921       2.990       3.080       3.194       3.286       3.343    
        3.396       3.433       3.447       3.447       3.443    
  11    2.474       2.481       2.497       2.522       2.559       2.610       2.684       2.801       2.957       3.025    
        3.078       3.113       3.131       3.138       3.140    
  12    2.261       2.266       2.277       2.293       2.318       2.353       2.402       2.473       2.620       2.709    
        2.760       2.791       2.809       2.818       2.821    
  13    2.183       2.187       2.194       2.207       2.225       2.249       2.281       2.320       2.370       2.417    
        2.449       2.470       2.483       2.490       2.492    
  14    2.099       2.101       2.106       2.113       2.122       2.135       2.151       2.167       2.175       2.191    
        2.204       2.214       2.220       2.223       2.225    
  15    2.013       2.013       2.014       2.015       2.016       2.017       2.018       2.019       2.020       2.021    
        2.021       2.022       2.022       2.023       2.023    
  16    2.046       2.048       2.052       2.057       2.063       2.066       2.063       2.058       2.052       2.047    
        2.044       2.041       2.039       2.038       2.037    
  17    2.076       2.080       2.088       2.099       2.112       2.120       2.111       2.097       2.083       2.072    
        2.064       2.058       2.054       2.052       2.050    
  18    2.101       2.107       2.119       2.138       2.164       2.190       2.162       2.133       2.111       2.094    
        2.082       2.073       2.067       2.063       2.061    
  19    2.120       2.127       2.143       2.169       2.215       2.312       2.212       2.162       2.131       2.110    
        2.094       2.083       2.076       2.071       2.069    
  20    2.129       2.137       2.154       2.180       2.214       2.246       2.210       2.172       2.141       2.118    
        2.101       2.089       2.081       2.076       2.073    

 HEAD WILL BE SAVED ON UNIT   51 AT END OF TIME STEP   66, STRESS PERIOD    3

 DRAWDOWN WILL BE SAVED ON UNIT   52 AT END OF TIME STEP   66, STRESS PERIOD    3
1
  VOLUMETRIC BUDGET FOR ENTIRE MODEL AT END OF TIME STEP   66, STRESS PERIOD   3
  ------------------------------------------------------------------------------

     CUMULATIVE VOLUMES      L**3       RATES FOR THIS TIME STEP      L**3/T
     ------------------                 ------------------------

           IN:                                      IN:
           ---                                      ---
             STORAGE =      134764.4531               STORAGE =         913.9480
       CONSTANT HEAD =       69797.2656         CONSTANT HEAD =           0.0000
               WELLS =       60200.0000                 WELLS =         600.0000
       RIVER LEAKAGE =      211534.9844         RIVER LEAKAGE =           0.0000

            TOTAL IN =      476296.6875              TOTAL IN =        1513.9480

          OUT:                                     OUT:
          ----                                     ----
             STORAGE =      247768.9688               STORAGE =           0.0000
       CONSTANT HEAD =       23219.4824         CONSTANT HEAD =         724.7025
               WELLS =       62200.0000                 WELLS =         100.0000
       RIVER LEAKAGE =      143108.2344         RIVER LEAKAGE =         689.2456

           TOTAL OUT =      476296.6875             TOTAL OUT =        1513.9480

            IN - OUT =           0.0000              IN - OUT =           0.0000

 PERCENT DISCREPANCY =           0.00     PERCENT DISCREPANCY =           0.00






         TIME SUMMARY AT END OF TIME STEP   66 IN STRESS PERIOD    3
                    SECONDS     MINUTES      HOURS       DAYS        YEARS
                    -----------------------------------------------------------
   TIME STEP LENGTH  86400.      1440.0      24.000      1.0000     2.73785E-03
 STRESS PERIOD TIME 5.70240E+06  95040.      1584.0      66.000     0.18070    
         TOTAL TIME 1.44288E+07 2.40480E+05  4008.0      167.00     0.45722    
1
 
 SOLVING FOR HEAD 

 OUTPUT CONTROL FOR STRESS PERIOD    3   TIME STEP   67
    SAVE HEAD FOR ALL LAYERS
    SAVE DRAWDOWN FOR ALL LAYERS
    SAVE BUDGET
    PRINT HEAD FOR ALL LAYERS
    PRINT BUDGET
 UBDSV1 SAVING "         STORAGE" ON UNIT   1 AT TIME STEP 67, STRESS PERIOD   3
 UBDSV2 SAVING "   CONSTANT HEAD" ON UNIT   1 AT TIME STEP 67, STRESS PERIOD   3
 UBDSV1 SAVING "FLOW RIGHT FACE " ON UNIT   1 AT TIME STEP 67, STRESS PERIOD   3
 UBDSV1 SAVING "FLOW FRONT FACE " ON UNIT   1 AT TIME STEP 67, STRESS PERIOD   3
1
              HEAD IN LAYER   1 AT END OF TIME STEP  67 IN STRESS PERIOD    3
  ---------------------------------------------------------------------------

            1           2           3           4           5           6           7           8           9          10
           11          12          13          14          15
 ........................................................................................................................
   1    2.650       2.650       2.650       2.650       2.650       2.650       2.650       2.650       2.650       2.650    
        2.650       2.650       2.650       2.650       2.650    
   2    3.095       3.078       3.050       3.032       3.077       3.130       3.166       3.168       3.130       3.132    
        3.144       3.151       3.147       3.137       3.130    
   3    3.356       3.318       3.240       3.147       3.294       3.423       3.506       3.537       3.514       3.533    
        3.567       3.590       3.575       3.547       3.528    
   4    3.492       3.436       3.279       2.854       3.358       3.590       3.720       3.791       3.803       3.855    
        3.937       4.002       3.952       3.884       3.844    
   5    3.553       3.519       3.451       3.375       3.548       3.714       3.844       3.944       3.994       4.092    
        4.267       4.471       4.290       4.137       4.062    
   6    3.542       3.532       3.519       3.532       3.629       3.752       3.873       3.987       4.064       4.205    
        4.519       5.271       4.549       4.265       4.157    
   7    3.456       3.460       3.473       3.511       3.589       3.690       3.801       3.916       3.993       4.104    
        4.289       4.500       4.325       4.176       4.102    
   8    3.298       3.308       3.332       3.375       3.444       3.534       3.637       3.746       3.817       3.894    
        3.996       4.076       4.037       3.975       3.938    
   9    3.074       3.085       3.111       3.153       3.214       3.294       3.390       3.498       3.569       3.628    
        3.693       3.739       3.739       3.720       3.705    
  10    2.793       2.804       2.826       2.862       2.913       2.981       3.070       3.184       3.274       3.331    
        3.383       3.420       3.434       3.434       3.430    
  11    2.470       2.477       2.493       2.518       2.554       2.605       2.678       2.794       2.948       3.016    
        3.068       3.103       3.121       3.128       3.130    
  12    2.259       2.264       2.274       2.291       2.315       2.350       2.398       2.469       2.615       2.702    
        2.753       2.784       2.802       2.811       2.814    
  13    2.181       2.185       2.193       2.205       2.223       2.247       2.279       2.318       2.366       2.414    
        2.445       2.466       2.479       2.485       2.488    
  14    2.098       2.101       2.105       2.112       2.121       2.134       2.150       2.165       2.174       2.189    
        2.202       2.212       2.218       2.221       2.223    
  15    2.012       2.013       2.013       2.015       2.016       2.017       2.018       2.019       2.019       2.020    
        2.021       2.022       2.022       2.022       2.022    
  16    2.045       2.047       2.051       2.057       2.062       2.065       2.063       2.057       2.052       2.047    
        2.043       2.040       2.038       2.037       2.036    
  17    2.075       2.079       2.087       2.098       2.111       2.119       2.110       2.096       2.082       2.071    
        2.063       2.057       2.053       2.051       2.049    
  18    2.100       2.106       2.118       2.137       2.163       2.188       2.160       2.132       2.109       2.093    
        2.080       2.072       2.066       2.062       2.060    
  19    2.118       2.126       2.141       2.168       2.214       2.310       2.211       2.161       2.130       2.108    
        2.093       2.082       2.074       2.070       2.068    
  20    2.128       2.136       2.152       2.178       2.213       2.244       2.209       2.170       2.139       2.116    
        2.099       2.087       2.079       2.074       2.072    

 HEAD WILL BE SAVED ON UNIT   51 AT END OF TIME STEP   67, STRESS PERIOD    3

 DRAWDOWN WILL BE SAVED ON UNIT   52 AT END OF TIME STEP   67, STRESS PERIOD    3
1
  VOLUMETRIC BUDGET FOR ENTIRE MODEL AT END OF TIME STEP   67, STRESS PERIOD   3
  ------------------------------------------------------------------------------

     CUMULATIVE VOLUMES      L**3       RATES FOR THIS TIME STEP      L**3/T
     ------------------                 ------------------------

           IN:                                      IN:
           ---                                      ---
             STORAGE =      135680.2500               STORAGE =         915.7902
       CONSTANT HEAD =       69797.2656         CONSTANT HEAD =           0.0000
               WELLS =       60800.0000                 WELLS =         600.0000
       RIVER LEAKAGE =      211534.9844         RIVER LEAKAGE =           0.0000

            TOTAL IN =      477812.5000              TOTAL IN =        1515.7903

          OUT:                                     OUT:
          ----                                     ----
             STORAGE =      247768.9688               STORAGE =           0.0000
       CONSTANT HEAD =       23952.5039         CONSTANT HEAD =         733.0217
               WELLS =       62300.0000                 WELLS =         100.0000
       RIVER LEAKAGE =      143791.0000         RIVER LEAKAGE =         682.7687

           TOTAL OUT =      477812.4688             TOTAL OUT =        1515.7904

            IN - OUT =       3.1250E-02              IN - OUT =      -1.2207E-04

 PERCENT DISCREPANCY =           0.00     PERCENT DISCREPANCY =          -0.00






         TIME SUMMARY AT END OF TIME STEP   67 IN STRESS PERIOD    3
                    SECONDS     MINUTES      HOURS       DAYS        YEARS
                    -----------------------------------------------------------
   TIME STEP LENGTH  86400.      1440.0      24.000      1.0000     2.73785E-03
 STRESS PERIOD TIME 5.78880E+06  96480.      1608.0      67.000     0.18344    
         TOTAL TIME 1.45152E+07 2.41920E+05  4032.0      168.00     0.45996    
1
 
 SOLVING FOR HEAD 

 OUTPUT CONTROL FOR STRESS PERIOD    3   TIME STEP   68
    SAVE HEAD FOR ALL LAYERS
    SAVE DRAWDOWN FOR ALL LAYERS
    SAVE BUDGET
    PRINT HEAD FOR ALL LAYERS
    PRINT BUDGET
 UBDSV1 SAVING "         STORAGE" ON UNIT   1 AT TIME STEP 68, STRESS PERIOD   3
 UBDSV2 SAVING "   CONSTANT HEAD" ON UNIT   1 AT TIME STEP 68, STRESS PERIOD   3
 UBDSV1 SAVING "FLOW RIGHT FACE " ON UNIT   1 AT TIME STEP 68, STRESS PERIOD   3
 UBDSV1 SAVING "FLOW FRONT FACE " ON UNIT   1 AT TIME STEP 68, STRESS PERIOD   3
1
              HEAD IN LAYER   1 AT END OF TIME STEP  68 IN STRESS PERIOD    3
  ---------------------------------------------------------------------------

            1           2           3           4           5           6           7           8           9          10
           11          12          13          14          15
 ........................................................................................................................
   1    2.600       2.600       2.600       2.600       2.600       2.600       2.600       2.600       2.600       2.600    
        2.600       2.600       2.600       2.600       2.600    
   2    3.053       3.036       3.008       2.989       3.034       3.087       3.122       3.124       3.085       3.088    
        3.099       3.106       3.102       3.092       3.085    
   3    3.321       3.284       3.205       3.111       3.258       3.386       3.468       3.499       3.474       3.494    
        3.527       3.550       3.535       3.507       3.488    
   4    3.464       3.407       3.250       2.824       3.327       3.559       3.688       3.758       3.769       3.820    
        3.902       3.967       3.917       3.849       3.808    
   5    3.530       3.496       3.427       3.351       3.523       3.688       3.817       3.915       3.964       4.062    
        4.237       4.440       4.259       4.106       4.031    
   6    3.523       3.513       3.500       3.512       3.608       3.730       3.850       3.963       4.039       4.179    
        4.493       5.245       4.522       4.239       4.130    
   7    3.441       3.445       3.458       3.495       3.571       3.672       3.782       3.895       3.972       4.082    
        4.266       4.478       4.302       4.153       4.079    
   8    3.286       3.296       3.319       3.362       3.431       3.519       3.621       3.729       3.798       3.875    
        3.977       4.057       4.017       3.956       3.918    
   9    3.064       3.076       3.101       3.143       3.203       3.282       3.377       3.484       3.554       3.613    
        3.677       3.723       3.723       3.704       3.688    
  10    2.787       2.797       2.819       2.854       2.905       2.973       3.060       3.173       3.263       3.319    
        3.371       3.407       3.421       3.420       3.417    
  11    2.466       2.473       2.489       2.513       2.549       2.600       2.672       2.787       2.940       3.007    
        3.059       3.093       3.111       3.118       3.120    
  12    2.257       2.262       2.272       2.288       2.313       2.347       2.395       2.465       2.610       2.696    
        2.746       2.777       2.795       2.804       2.807    
  13    2.180       2.183       2.191       2.203       2.221       2.245       2.276       2.315       2.363       2.410    
        2.442       2.462       2.474       2.481       2.484    
  14    2.098       2.100       2.104       2.111       2.120       2.133       2.148       2.164       2.172       2.187    
        2.200       2.210       2.216       2.219       2.221    
  15    2.012       2.013       2.013       2.014       2.016       2.017       2.018       2.019       2.019       2.020    
        2.021       2.022       2.022       2.022       2.022    
  16    2.044       2.047       2.051       2.056       2.062       2.065       2.062       2.057       2.051       2.046    
        2.042       2.040       2.038       2.036       2.036    
  17    2.074       2.078       2.086       2.097       2.110       2.118       2.109       2.095       2.081       2.071    
        2.062       2.056       2.052       2.050       2.048    
  18    2.099       2.105       2.117       2.136       2.162       2.187       2.159       2.131       2.108       2.092    
        2.079       2.070       2.064       2.061       2.059    
  19    2.117       2.124       2.140       2.167       2.212       2.309       2.209       2.160       2.128       2.107    
        2.091       2.080       2.073       2.068       2.066    
  20    2.126       2.134       2.151       2.177       2.211       2.243       2.207       2.169       2.138       2.115    
        2.098       2.086       2.078       2.073       2.070    

 HEAD WILL BE SAVED ON UNIT   51 AT END OF TIME STEP   68, STRESS PERIOD    3

 DRAWDOWN WILL BE SAVED ON UNIT   52 AT END OF TIME STEP   68, STRESS PERIOD    3
1
  VOLUMETRIC BUDGET FOR ENTIRE MODEL AT END OF TIME STEP   68, STRESS PERIOD   3
  ------------------------------------------------------------------------------

     CUMULATIVE VOLUMES      L**3       RATES FOR THIS TIME STEP      L**3/T
     ------------------                 ------------------------

           IN:                                      IN:
           ---                                      ---
             STORAGE =      136597.9219               STORAGE =         917.6682
       CONSTANT HEAD =       69797.2656         CONSTANT HEAD =           0.0000
               WELLS =       61400.0000                 WELLS =         600.0000
       RIVER LEAKAGE =      211534.9844         RIVER LEAKAGE =           0.0000

            TOTAL IN =      479330.1875              TOTAL IN =        1517.6682

          OUT:                                     OUT:
          ----                                     ----
             STORAGE =      247768.9688               STORAGE =           0.0000
       CONSTANT HEAD =       24693.7539         CONSTANT HEAD =         741.2495
               WELLS =       62400.0000                 WELLS =         100.0000
       RIVER LEAKAGE =      144467.4219         RIVER LEAKAGE =         676.4183

           TOTAL OUT =      479330.1250             TOTAL OUT =        1517.6677

            IN - OUT =       6.2500E-02              IN - OUT =       4.8828E-04

 PERCENT DISCREPANCY =           0.00     PERCENT DISCREPANCY =           0.00






         TIME SUMMARY AT END OF TIME STEP   68 IN STRESS PERIOD    3
                    SECONDS     MINUTES      HOURS       DAYS        YEARS
                    -----------------------------------------------------------
   TIME STEP LENGTH  86400.      1440.0      24.000      1.0000     2.73785E-03
 STRESS PERIOD TIME 5.87520E+06  97920.      1632.0      68.000     0.18617    
         TOTAL TIME 1.46016E+07 2.43360E+05  4056.0      169.00     0.46270    
1
 
 SOLVING FOR HEAD 

 OUTPUT CONTROL FOR STRESS PERIOD    3   TIME STEP   69
    SAVE HEAD FOR ALL LAYERS
    SAVE DRAWDOWN FOR ALL LAYERS
    SAVE BUDGET
    PRINT HEAD FOR ALL LAYERS
    PRINT BUDGET
 UBDSV1 SAVING "         STORAGE" ON UNIT   1 AT TIME STEP 69, STRESS PERIOD   3
 UBDSV2 SAVING "   CONSTANT HEAD" ON UNIT   1 AT TIME STEP 69, STRESS PERIOD   3
 UBDSV1 SAVING "FLOW RIGHT FACE " ON UNIT   1 AT TIME STEP 69, STRESS PERIOD   3
 UBDSV1 SAVING "FLOW FRONT FACE " ON UNIT   1 AT TIME STEP 69, STRESS PERIOD   3
1
              HEAD IN LAYER   1 AT END OF TIME STEP  69 IN STRESS PERIOD    3
  ---------------------------------------------------------------------------

            1           2           3           4           5           6           7           8           9          10
           11          12          13          14          15
 ........................................................................................................................
   1    2.550       2.550       2.550       2.550       2.550       2.550       2.550       2.550       2.550       2.550    
        2.550       2.550       2.550       2.550       2.550    
   2    3.011       2.994       2.966       2.946       2.992       3.044       3.078       3.080       3.041       3.043    
        3.054       3.062       3.057       3.047       3.040    
   3    3.286       3.248       3.169       3.075       3.221       3.349       3.430       3.460       3.435       3.454    
        3.488       3.511       3.496       3.467       3.448    
   4    3.435       3.378       3.221       2.794       3.297       3.528       3.656       3.725       3.735       3.786    
        3.867       3.932       3.881       3.813       3.773    
   5    3.507       3.473       3.403       3.326       3.498       3.661       3.789       3.886       3.934       4.032    
        4.206       4.410       4.228       4.075       4.000    
   6    3.505       3.494       3.480       3.492       3.587       3.708       3.826       3.938       4.013       4.153    
        4.467       5.219       4.496       4.212       4.103    
   7    3.426       3.429       3.442       3.478       3.554       3.654       3.762       3.874       3.950       4.060    
        4.244       4.455       4.279       4.130       4.056    
   8    3.274       3.283       3.306       3.349       3.416       3.504       3.604       3.711       3.780       3.856    
        3.957       4.037       3.998       3.936       3.898    
   9    3.055       3.066       3.091       3.132       3.192       3.270       3.364       3.470       3.539       3.597    
        3.661       3.707       3.706       3.687       3.672    
  10    2.780       2.790       2.812       2.847       2.897       2.964       3.051       3.162       3.251       3.306    
        3.358       3.394       3.408       3.407       3.404    
  11    2.462       2.469       2.484       2.509       2.544       2.594       2.666       2.780       2.931       2.998    
        3.049       3.083       3.101       3.108       3.110    
  12    2.255       2.260       2.270       2.286       2.310       2.344       2.391       2.461       2.604       2.690    
        2.740       2.770       2.788       2.796       2.800    
  13    2.178       2.182       2.189       2.201       2.219       2.243       2.274       2.312       2.360       2.406    
        2.438       2.458       2.470       2.477       2.479    
  14    2.097       2.099       2.103       2.110       2.119       2.132       2.147       2.163       2.170       2.186    
        2.199       2.208       2.214       2.217       2.219    
  15    2.012       2.013       2.013       2.014       2.016       2.017       2.018       2.019       2.019       2.020    
        2.021       2.021       2.022       2.022       2.022    
  16    2.044       2.046       2.050       2.056       2.061       2.064       2.062       2.056       2.051       2.046    
        2.042       2.039       2.037       2.036       2.035    
  17    2.073       2.077       2.085       2.096       2.109       2.117       2.108       2.094       2.081       2.070    
        2.062       2.056       2.051       2.049       2.048    
  18    2.098       2.104       2.116       2.135       2.161       2.186       2.158       2.130       2.107       2.090    
        2.078       2.069       2.063       2.059       2.058    
  19    2.116       2.123       2.139       2.165       2.211       2.308       2.208       2.158       2.127       2.106    
        2.090       2.079       2.072       2.067       2.065    
  20    2.125       2.133       2.149       2.175       2.210       2.242       2.206       2.167       2.136       2.113    
        2.096       2.084       2.076       2.071       2.069    

 HEAD WILL BE SAVED ON UNIT   51 AT END OF TIME STEP   69, STRESS PERIOD    3

 DRAWDOWN WILL BE SAVED ON UNIT   52 AT END OF TIME STEP   69, STRESS PERIOD    3
1
  VOLUMETRIC BUDGET FOR ENTIRE MODEL AT END OF TIME STEP   69, STRESS PERIOD   3
  ------------------------------------------------------------------------------

     CUMULATIVE VOLUMES      L**3       RATES FOR THIS TIME STEP      L**3/T
     ------------------                 ------------------------

           IN:                                      IN:
           ---                                      ---
             STORAGE =      137517.5000               STORAGE =         919.5753
       CONSTANT HEAD =       69797.2656         CONSTANT HEAD =           0.0000
               WELLS =       62000.0000                 WELLS =         600.0000
       RIVER LEAKAGE =      211534.9844         RIVER LEAKAGE =           0.0000

            TOTAL IN =      480849.7500              TOTAL IN =        1519.5753

          OUT:                                     OUT:
          ----                                     ----
             STORAGE =      247768.9688               STORAGE =           0.0000
       CONSTANT HEAD =       25443.1445         CONSTANT HEAD =         749.3903
               WELLS =       62500.0000                 WELLS =         100.0000
       RIVER LEAKAGE =      145137.6094         RIVER LEAKAGE =         670.1849

           TOTAL OUT =      480849.7500             TOTAL OUT =        1519.5752

            IN - OUT =           0.0000              IN - OUT =       1.2207E-04

 PERCENT DISCREPANCY =           0.00     PERCENT DISCREPANCY =           0.00






         TIME SUMMARY AT END OF TIME STEP   69 IN STRESS PERIOD    3
                    SECONDS     MINUTES      HOURS       DAYS        YEARS
                    -----------------------------------------------------------
   TIME STEP LENGTH  86400.      1440.0      24.000      1.0000     2.73785E-03
 STRESS PERIOD TIME 5.96160E+06  99360.      1656.0      69.000     0.18891    
         TOTAL TIME 1.46880E+07 2.44800E+05  4080.0      170.00     0.46543    
1
 
 SOLVING FOR HEAD 

 OUTPUT CONTROL FOR STRESS PERIOD    3   TIME STEP   70
    SAVE HEAD FOR ALL LAYERS
    SAVE DRAWDOWN FOR ALL LAYERS
    SAVE BUDGET
    PRINT HEAD FOR ALL LAYERS
    PRINT BUDGET
 UBDSV1 SAVING "         STORAGE" ON UNIT   1 AT TIME STEP 70, STRESS PERIOD   3
 UBDSV2 SAVING "   CONSTANT HEAD" ON UNIT   1 AT TIME STEP 70, STRESS PERIOD   3
 UBDSV1 SAVING "FLOW RIGHT FACE " ON UNIT   1 AT TIME STEP 70, STRESS PERIOD   3
 UBDSV1 SAVING "FLOW FRONT FACE " ON UNIT   1 AT TIME STEP 70, STRESS PERIOD   3
1
              HEAD IN LAYER   1 AT END OF TIME STEP  70 IN STRESS PERIOD    3
  ---------------------------------------------------------------------------

            1           2           3           4           5           6           7           8           9          10
           11          12          13          14          15
 ........................................................................................................................
   1    2.500       2.500       2.500       2.500       2.500       2.500       2.500       2.500       2.500       2.500    
        2.500       2.500       2.500       2.500       2.500    
   2    2.968       2.952       2.923       2.904       2.949       3.001       3.035       3.036       2.996       2.999    
        3.009       3.017       3.012       3.002       2.995    
   3    3.251       3.213       3.134       3.039       3.185       3.312       3.393       3.421       3.396       3.414    
        3.448       3.471       3.456       3.427       3.408    
   4    3.406       3.349       3.192       2.763       3.266       3.496       3.623       3.691       3.700       3.751    
        3.832       3.896       3.846       3.778       3.737    
   5    3.484       3.449       3.379       3.301       3.472       3.635       3.762       3.857       3.904       4.001    
        4.176       4.379       4.197       4.044       3.969    
   6    3.486       3.475       3.461       3.471       3.566       3.686       3.803       3.913       3.987       4.127    
        4.441       5.192       4.469       4.185       4.076    
   7    3.411       3.414       3.426       3.462       3.537       3.635       3.743       3.853       3.928       4.037    
        4.221       4.432       4.256       4.106       4.032    
   8    3.262       3.271       3.294       3.336       3.402       3.489       3.588       3.694       3.762       3.837    
        3.938       4.018       3.978       3.916       3.878    
   9    3.046       3.057       3.081       3.122       3.181       3.259       3.351       3.456       3.524       3.582    
        3.646       3.690       3.690       3.671       3.655    
  10    2.774       2.784       2.805       2.839       2.889       2.955       3.041       3.151       3.239       3.294    
        3.345       3.381       3.395       3.394       3.390    
  11    2.458       2.465       2.480       2.504       2.540       2.589       2.660       2.773       2.922       2.989    
        3.039       3.073       3.091       3.098       3.099    
  12    2.252       2.257       2.267       2.284       2.307       2.341       2.388       2.457       2.599       2.684    
        2.733       2.763       2.781       2.789       2.792    
  13    2.177       2.180       2.188       2.200       2.217       2.240       2.271       2.309       2.357       2.403    
        2.434       2.454       2.466       2.472       2.475    
  14    2.096       2.098       2.102       2.109       2.118       2.131       2.146       2.161       2.169       2.184    
        2.197       2.206       2.212       2.215       2.217    
  15    2.012       2.012       2.013       2.014       2.015       2.017       2.018       2.019       2.019       2.020    
        2.021       2.021       2.021       2.022       2.022    
  16    2.044       2.046       2.050       2.055       2.061       2.064       2.061       2.056       2.050       2.045    
        2.041       2.039       2.037       2.035       2.035    
  17    2.073       2.077       2.084       2.096       2.108       2.116       2.107       2.093       2.080       2.069    
        2.061       2.055       2.051       2.048       2.047    
  18    2.097       2.103       2.115       2.134       2.160       2.185       2.157       2.129       2.106       2.089    
        2.077       2.068       2.062       2.058       2.057    
  19    2.115       2.122       2.138       2.164       2.210       2.307       2.207       2.157       2.126       2.104    
        2.089       2.078       2.071       2.066       2.064    
  20    2.124       2.132       2.148       2.174       2.209       2.240       2.205       2.166       2.135       2.112    
        2.095       2.083       2.075       2.070       2.067    

 HEAD WILL BE SAVED ON UNIT   51 AT END OF TIME STEP   70, STRESS PERIOD    3

 DRAWDOWN WILL BE SAVED ON UNIT   52 AT END OF TIME STEP   70, STRESS PERIOD    3
1
  VOLUMETRIC BUDGET FOR ENTIRE MODEL AT END OF TIME STEP   70, STRESS PERIOD   3
  ------------------------------------------------------------------------------

     CUMULATIVE VOLUMES      L**3       RATES FOR THIS TIME STEP      L**3/T
     ------------------                 ------------------------

           IN:                                      IN:
           ---                                      ---
             STORAGE =      138439.0000               STORAGE =         921.5037
       CONSTANT HEAD =       69797.2656         CONSTANT HEAD =           0.0000
               WELLS =       62600.0000                 WELLS =         600.0000
       RIVER LEAKAGE =      211534.9844         RIVER LEAKAGE =           0.0000

            TOTAL IN =      482371.2500              TOTAL IN =        1521.5037

          OUT:                                     OUT:
          ----                                     ----
             STORAGE =      247768.9688               STORAGE =           0.0000
       CONSTANT HEAD =       26200.5938         CONSTANT HEAD =         757.4486
               WELLS =       62600.0000                 WELLS =         100.0000
       RIVER LEAKAGE =      145801.6719         RIVER LEAKAGE =         664.0565

           TOTAL OUT =      482371.2500             TOTAL OUT =        1521.5051

            IN - OUT =           0.0000              IN - OUT =      -1.4648E-03

 PERCENT DISCREPANCY =           0.00     PERCENT DISCREPANCY =          -0.00






         TIME SUMMARY AT END OF TIME STEP   70 IN STRESS PERIOD    3
                    SECONDS     MINUTES      HOURS       DAYS        YEARS
                    -----------------------------------------------------------
   TIME STEP LENGTH  86400.      1440.0      24.000      1.0000     2.73785E-03
 STRESS PERIOD TIME 6.04800E+06 1.00800E+05  1680.0      70.000     0.19165    
         TOTAL TIME 1.47744E+07 2.46240E+05  4104.0      171.00     0.46817    
1
 
 SOLVING FOR HEAD 

 OUTPUT CONTROL FOR STRESS PERIOD    3   TIME STEP   71
    SAVE HEAD FOR ALL LAYERS
    SAVE DRAWDOWN FOR ALL LAYERS
    SAVE BUDGET
    PRINT HEAD FOR ALL LAYERS
    PRINT BUDGET
 UBDSV1 SAVING "         STORAGE" ON UNIT   1 AT TIME STEP 71, STRESS PERIOD   3
 UBDSV2 SAVING "   CONSTANT HEAD" ON UNIT   1 AT TIME STEP 71, STRESS PERIOD   3
 UBDSV1 SAVING "FLOW RIGHT FACE " ON UNIT   1 AT TIME STEP 71, STRESS PERIOD   3
 UBDSV1 SAVING "FLOW FRONT FACE " ON UNIT   1 AT TIME STEP 71, STRESS PERIOD   3
1
              HEAD IN LAYER   1 AT END OF TIME STEP  71 IN STRESS PERIOD    3
  ---------------------------------------------------------------------------

            1           2           3           4           5           6           7           8           9          10
           11          12          13          14          15
 ........................................................................................................................
   1    2.450       2.450       2.450       2.450       2.450       2.450       2.450       2.450       2.450       2.450    
        2.450       2.450       2.450       2.450       2.450    
   2    2.926       2.909       2.880       2.861       2.906       2.957       2.991       2.992       2.952       2.954    
        2.965       2.972       2.968       2.957       2.950    
   3    3.216       3.178       3.098       3.003       3.148       3.275       3.355       3.383       3.356       3.375    
        3.408       3.431       3.415       3.387       3.368    
   4    3.377       3.320       3.162       2.733       3.235       3.465       3.591       3.657       3.666       3.716    
        3.797       3.861       3.811       3.742       3.702    
   5    3.460       3.426       3.355       3.276       3.447       3.608       3.734       3.828       3.874       3.971    
        4.145       4.348       4.166       4.013       3.937    
   6    3.467       3.456       3.441       3.451       3.545       3.663       3.780       3.888       3.961       4.101    
        4.414       5.166       4.442       4.157       4.049    
   7    3.396       3.398       3.410       3.445       3.519       3.617       3.723       3.832       3.906       4.015    
        4.198       4.409       4.232       4.083       4.009    
   8    3.250       3.259       3.281       3.322       3.388       3.474       3.572       3.676       3.743       3.818    
        3.919       3.998       3.958       3.896       3.859    
   9    3.036       3.047       3.071       3.111       3.170       3.247       3.339       3.442       3.509       3.566    
        3.630       3.674       3.674       3.654       3.639    
  10    2.767       2.777       2.798       2.832       2.881       2.947       3.032       3.141       3.227       3.282    
        3.333       3.368       3.381       3.381       3.377    
  11    2.454       2.461       2.476       2.500       2.535       2.584       2.654       2.766       2.914       2.980    
        3.030       3.063       3.081       3.088       3.089    
  12    2.250       2.255       2.265       2.281       2.304       2.338       2.384       2.453       2.593       2.678    
        2.726       2.756       2.773       2.782       2.785    
  13    2.175       2.179       2.186       2.198       2.215       2.238       2.269       2.307       2.353       2.399    
        2.430       2.450       2.462       2.468       2.471    
  14    2.095       2.097       2.101       2.108       2.117       2.129       2.144       2.160       2.167       2.182    
        2.195       2.204       2.210       2.213       2.215    
  15    2.012       2.012       2.013       2.014       2.015       2.017       2.018       2.019       2.019       2.020    
        2.020       2.021       2.021       2.021       2.021    
  16    2.043       2.045       2.049       2.055       2.060       2.064       2.061       2.055       2.050       2.045    
        2.041       2.038       2.036       2.035       2.034    
  17    2.072       2.076       2.084       2.095       2.108       2.116       2.106       2.092       2.079       2.068    
        2.060       2.054       2.050       2.047       2.046    
  18    2.096       2.102       2.114       2.133       2.159       2.184       2.156       2.128       2.105       2.088    
        2.076       2.067       2.061       2.057       2.056    
  19    2.113       2.121       2.136       2.163       2.209       2.305       2.206       2.156       2.125       2.103    
        2.088       2.077       2.069       2.065       2.063    
  20    2.123       2.130       2.147       2.173       2.207       2.239       2.204       2.165       2.134       2.111    
        2.094       2.082       2.074       2.069       2.066    

 HEAD WILL BE SAVED ON UNIT   51 AT END OF TIME STEP   71, STRESS PERIOD    3

 DRAWDOWN WILL BE SAVED ON UNIT   52 AT END OF TIME STEP   71, STRESS PERIOD    3
1
  VOLUMETRIC BUDGET FOR ENTIRE MODEL AT END OF TIME STEP   71, STRESS PERIOD   3
  ------------------------------------------------------------------------------

     CUMULATIVE VOLUMES      L**3       RATES FOR THIS TIME STEP      L**3/T
     ------------------                 ------------------------

           IN:                                      IN:
           ---                                      ---
             STORAGE =      139362.4531               STORAGE =         923.4489
       CONSTANT HEAD =       69797.2656         CONSTANT HEAD =           0.0000
               WELLS =       63200.0000                 WELLS =         600.0000
       RIVER LEAKAGE =      211534.9844         RIVER LEAKAGE =           0.0000

            TOTAL IN =      483894.6875              TOTAL IN =        1523.4489

          OUT:                                     OUT:
          ----                                     ----
             STORAGE =      247768.9688               STORAGE =           0.0000
       CONSTANT HEAD =       26966.0215         CONSTANT HEAD =         765.4280
               WELLS =       62700.0000                 WELLS =         100.0000
       RIVER LEAKAGE =      146459.6875         RIVER LEAKAGE =         658.0222

           TOTAL OUT =      483894.6875             TOTAL OUT =        1523.4502

            IN - OUT =           0.0000              IN - OUT =      -1.3428E-03

 PERCENT DISCREPANCY =           0.00     PERCENT DISCREPANCY =          -0.00






         TIME SUMMARY AT END OF TIME STEP   71 IN STRESS PERIOD    3
                    SECONDS     MINUTES      HOURS       DAYS        YEARS
                    -----------------------------------------------------------
   TIME STEP LENGTH  86400.      1440.0      24.000      1.0000     2.73785E-03
 STRESS PERIOD TIME 6.13440E+06 1.02240E+05  1704.0      71.000     0.19439    
         TOTAL TIME 1.48608E+07 2.47680E+05  4128.0      172.00     0.47091    
1
 
 SOLVING FOR HEAD 

 OUTPUT CONTROL FOR STRESS PERIOD    3   TIME STEP   72
    SAVE HEAD FOR ALL LAYERS
    SAVE DRAWDOWN FOR ALL LAYERS
    SAVE BUDGET
    PRINT HEAD FOR ALL LAYERS
    PRINT BUDGET
 UBDSV1 SAVING "         STORAGE" ON UNIT   1 AT TIME STEP 72, STRESS PERIOD   3
 UBDSV2 SAVING "   CONSTANT HEAD" ON UNIT   1 AT TIME STEP 72, STRESS PERIOD   3
 UBDSV1 SAVING "FLOW RIGHT FACE " ON UNIT   1 AT TIME STEP 72, STRESS PERIOD   3
 UBDSV1 SAVING "FLOW FRONT FACE " ON UNIT   1 AT TIME STEP 72, STRESS PERIOD   3
1
              HEAD IN LAYER   1 AT END OF TIME STEP  72 IN STRESS PERIOD    3
  ---------------------------------------------------------------------------

            1           2           3           4           5           6           7           8           9          10
           11          12          13          14          15
 ........................................................................................................................
   1    2.400       2.400       2.400       2.400       2.400       2.400       2.400       2.400       2.400       2.400    
        2.400       2.400       2.400       2.400       2.400    
   2    2.884       2.867       2.838       2.818       2.862       2.914       2.947       2.948       2.907       2.909    
        2.920       2.927       2.923       2.912       2.905    
   3    3.181       3.142       3.062       2.967       3.111       3.238       3.317       3.344       3.317       3.335    
        3.368       3.391       3.375       3.347       3.328    
   4    3.348       3.291       3.132       2.702       3.204       3.433       3.558       3.624       3.631       3.681    
        3.762       3.826       3.775       3.707       3.666    
   5    3.436       3.401       3.330       3.251       3.421       3.582       3.706       3.799       3.844       3.940    
        4.114       4.317       4.135       3.982       3.906    
   6    3.448       3.436       3.421       3.430       3.524       3.641       3.756       3.863       3.935       4.074    
        4.387       5.139       4.415       4.130       4.021    
   7    3.380       3.383       3.394       3.428       3.502       3.598       3.703       3.811       3.883       3.992    
        4.176       4.386       4.209       4.059       3.985    
   8    3.237       3.246       3.268       3.309       3.374       3.459       3.556       3.659       3.724       3.799    
        3.900       3.979       3.938       3.876       3.839    
   9    3.027       3.038       3.061       3.101       3.159       3.235       3.326       3.427       3.494       3.551    
        3.614       3.658       3.657       3.638       3.622    
  10    2.760       2.770       2.791       2.824       2.873       2.938       3.022       3.130       3.215       3.269    
        3.320       3.355       3.368       3.367       3.364    
  11    2.450       2.457       2.472       2.496       2.530       2.579       2.648       2.759       2.905       2.971    
        3.020       3.053       3.071       3.077       3.079    
  12    2.248       2.253       2.263       2.279       2.302       2.334       2.381       2.449       2.588       2.671    
        2.720       2.749       2.766       2.775       2.778    
  13    2.174       2.177       2.185       2.196       2.213       2.236       2.267       2.304       2.350       2.395    
        2.426       2.446       2.457       2.464       2.466    
  14    2.094       2.096       2.100       2.107       2.116       2.128       2.143       2.158       2.166       2.181    
        2.193       2.202       2.208       2.211       2.213    
  15    2.012       2.012       2.013       2.014       2.015       2.016       2.018       2.018       2.019       2.019    
        2.020       2.021       2.021       2.021       2.021    
  16    2.043       2.045       2.049       2.054       2.060       2.063       2.060       2.055       2.049       2.044    
        2.040       2.038       2.036       2.034       2.034    
  17    2.071       2.075       2.083       2.094       2.107       2.115       2.106       2.092       2.078       2.068    
        2.059       2.053       2.049       2.046       2.045    
  18    2.095       2.101       2.113       2.132       2.158       2.183       2.155       2.127       2.104       2.088    
        2.075       2.066       2.060       2.057       2.055    
  19    2.112       2.120       2.135       2.162       2.208       2.304       2.205       2.155       2.124       2.102    
        2.087       2.076       2.068       2.064       2.061    
  20    2.121       2.129       2.146       2.172       2.206       2.238       2.203       2.164       2.133       2.110    
        2.093       2.081       2.073       2.067       2.065    

 HEAD WILL BE SAVED ON UNIT   51 AT END OF TIME STEP   72, STRESS PERIOD    3

 DRAWDOWN WILL BE SAVED ON UNIT   52 AT END OF TIME STEP   72, STRESS PERIOD    3
1
  VOLUMETRIC BUDGET FOR ENTIRE MODEL AT END OF TIME STEP   72, STRESS PERIOD   3
  ------------------------------------------------------------------------------

     CUMULATIVE VOLUMES      L**3       RATES FOR THIS TIME STEP      L**3/T
     ------------------                 ------------------------

           IN:                                      IN:
           ---                                      ---
             STORAGE =      140287.8594               STORAGE =         925.4048
       CONSTANT HEAD =       69797.2656         CONSTANT HEAD =           0.0000
               WELLS =       63800.0000                 WELLS =         600.0000
       RIVER LEAKAGE =      211534.9844         RIVER LEAKAGE =           0.0000

            TOTAL IN =      485420.1250              TOTAL IN =        1525.4048

          OUT:                                     OUT:
          ----                                     ----
             STORAGE =      247768.9688               STORAGE =           0.0000
       CONSTANT HEAD =       27739.3535         CONSTANT HEAD =         773.3326
               WELLS =       62800.0000                 WELLS =         100.0000
       RIVER LEAKAGE =      147111.7656         RIVER LEAKAGE =         652.0721

           TOTAL OUT =      485420.0625             TOTAL OUT =        1525.4048

            IN - OUT =       6.2500E-02              IN - OUT =           0.0000

 PERCENT DISCREPANCY =           0.00     PERCENT DISCREPANCY =           0.00






         TIME SUMMARY AT END OF TIME STEP   72 IN STRESS PERIOD    3
                    SECONDS     MINUTES      HOURS       DAYS        YEARS
                    -----------------------------------------------------------
   TIME STEP LENGTH  86400.      1440.0      24.000      1.0000     2.73785E-03
 STRESS PERIOD TIME 6.22080E+06 1.03680E+05  1728.0      72.000     0.19713    
         TOTAL TIME 1.49472E+07 2.49120E+05  4152.0      173.00     0.47365    
1
 
 SOLVING FOR HEAD 

 OUTPUT CONTROL FOR STRESS PERIOD    3   TIME STEP   73
    SAVE HEAD FOR ALL LAYERS
    SAVE DRAWDOWN FOR ALL LAYERS
    SAVE BUDGET
    PRINT HEAD FOR ALL LAYERS
    PRINT BUDGET
 UBDSV1 SAVING "         STORAGE" ON UNIT   1 AT TIME STEP 73, STRESS PERIOD   3
 UBDSV2 SAVING "   CONSTANT HEAD" ON UNIT   1 AT TIME STEP 73, STRESS PERIOD   3
 UBDSV1 SAVING "FLOW RIGHT FACE " ON UNIT   1 AT TIME STEP 73, STRESS PERIOD   3
 UBDSV1 SAVING "FLOW FRONT FACE " ON UNIT   1 AT TIME STEP 73, STRESS PERIOD   3
1
              HEAD IN LAYER   1 AT END OF TIME STEP  73 IN STRESS PERIOD    3
  ---------------------------------------------------------------------------

            1           2           3           4           5           6           7           8           9          10
           11          12          13          14          15
 ........................................................................................................................
   1    2.350       2.350       2.350       2.350       2.350       2.350       2.350       2.350       2.350       2.350    
        2.350       2.350       2.350       2.350       2.350    
   2    2.841       2.824       2.795       2.775       2.819       2.871       2.904       2.903       2.862       2.864    
        2.875       2.882       2.878       2.867       2.860    
   3    3.145       3.106       3.026       2.930       3.074       3.201       3.279       3.305       3.277       3.295    
        3.328       3.351       3.335       3.307       3.288    
   4    3.319       3.261       3.102       2.672       3.173       3.401       3.525       3.590       3.596       3.646    
        3.726       3.791       3.740       3.671       3.630    
   5    3.412       3.377       3.306       3.226       3.395       3.555       3.678       3.770       3.814       3.910    
        4.083       4.286       4.104       3.951       3.875    
   6    3.428       3.416       3.401       3.409       3.502       3.618       3.732       3.838       3.909       4.048    
        4.361       5.112       4.388       4.103       3.994    
   7    3.364       3.367       3.378       3.411       3.484       3.579       3.683       3.790       3.861       3.969    
        4.153       4.363       4.186       4.036       3.962    
   8    3.225       3.234       3.255       3.295       3.360       3.443       3.539       3.641       3.706       3.780    
        3.880       3.959       3.919       3.856       3.818    
   9    3.017       3.028       3.051       3.090       3.148       3.223       3.313       3.413       3.479       3.535    
        3.598       3.642       3.641       3.621       3.605    
  10    2.753       2.763       2.784       2.817       2.865       2.929       3.013       3.119       3.203       3.257    
        3.307       3.342       3.355       3.354       3.350    
  11    2.446       2.453       2.468       2.491       2.525       2.573       2.642       2.751       2.897       2.961    
        3.010       3.043       3.060       3.067       3.068    
  12    2.246       2.251       2.260       2.276       2.299       2.331       2.377       2.444       2.582       2.665    
        2.713       2.742       2.759       2.767       2.770    
  13    2.172       2.176       2.183       2.195       2.211       2.234       2.264       2.301       2.347       2.392    
        2.422       2.441       2.453       2.459       2.462    
  14    2.093       2.095       2.100       2.106       2.115       2.127       2.142       2.157       2.164       2.179    
        2.192       2.201       2.206       2.209       2.211    
  15    2.012       2.012       2.013       2.014       2.015       2.016       2.017       2.018       2.018       2.019    
        2.020       2.020       2.021       2.021       2.021    
  16    2.042       2.045       2.049       2.054       2.060       2.063       2.060       2.055       2.049       2.044    
        2.040       2.037       2.035       2.034       2.033    
  17    2.071       2.075       2.082       2.094       2.106       2.114       2.105       2.091       2.078       2.067    
        2.059       2.053       2.048       2.046       2.045    
  18    2.094       2.100       2.112       2.131       2.157       2.183       2.155       2.126       2.104       2.087    
        2.074       2.065       2.059       2.056       2.054    
  19    2.112       2.119       2.135       2.161       2.207       2.304       2.204       2.154       2.123       2.101    
        2.086       2.075       2.067       2.063       2.060    
  20    2.120       2.128       2.145       2.171       2.205       2.237       2.202       2.163       2.132       2.109    
        2.092       2.080       2.071       2.066       2.064    

 HEAD WILL BE SAVED ON UNIT   51 AT END OF TIME STEP   73, STRESS PERIOD    3

 DRAWDOWN WILL BE SAVED ON UNIT   52 AT END OF TIME STEP   73, STRESS PERIOD    3
1
  VOLUMETRIC BUDGET FOR ENTIRE MODEL AT END OF TIME STEP   73, STRESS PERIOD   3
  ------------------------------------------------------------------------------

     CUMULATIVE VOLUMES      L**3       RATES FOR THIS TIME STEP      L**3/T
     ------------------                 ------------------------

           IN:                                      IN:
           ---                                      ---
             STORAGE =      141215.2188               STORAGE =         927.3655
       CONSTANT HEAD =       69797.2656         CONSTANT HEAD =           0.0000
               WELLS =       64400.0000                 WELLS =         600.0000
       RIVER LEAKAGE =      211534.9844         RIVER LEAKAGE =           0.0000

            TOTAL IN =      486947.5000              TOTAL IN =        1527.3655

          OUT:                                     OUT:
          ----                                     ----
             STORAGE =      247768.9688               STORAGE =           0.0000
       CONSTANT HEAD =       28520.5176         CONSTANT HEAD =         781.1650
               WELLS =       62900.0000                 WELLS =         100.0000
       RIVER LEAKAGE =      147757.9688         RIVER LEAKAGE =         646.2010

           TOTAL OUT =      486947.4688             TOTAL OUT =        1527.3660

            IN - OUT =       3.1250E-02              IN - OUT =      -4.8828E-04

 PERCENT DISCREPANCY =           0.00     PERCENT DISCREPANCY =          -0.00






         TIME SUMMARY AT END OF TIME STEP   73 IN STRESS PERIOD    3
                    SECONDS     MINUTES      HOURS       DAYS        YEARS
                    -----------------------------------------------------------
   TIME STEP LENGTH  86400.      1440.0      24.000      1.0000     2.73785E-03
 STRESS PERIOD TIME 6.30720E+06 1.05120E+05  1752.0      73.000     0.19986    
         TOTAL TIME 1.50336E+07 2.50560E+05  4176.0      174.00     0.47639    
1
 
 SOLVING FOR HEAD 

 OUTPUT CONTROL FOR STRESS PERIOD    3   TIME STEP   74
    SAVE HEAD FOR ALL LAYERS
    SAVE DRAWDOWN FOR ALL LAYERS
    SAVE BUDGET
    PRINT HEAD FOR ALL LAYERS
    PRINT BUDGET
 UBDSV1 SAVING "         STORAGE" ON UNIT   1 AT TIME STEP 74, STRESS PERIOD   3
 UBDSV2 SAVING "   CONSTANT HEAD" ON UNIT   1 AT TIME STEP 74, STRESS PERIOD   3
 UBDSV1 SAVING "FLOW RIGHT FACE " ON UNIT   1 AT TIME STEP 74, STRESS PERIOD   3
 UBDSV1 SAVING "FLOW FRONT FACE " ON UNIT   1 AT TIME STEP 74, STRESS PERIOD   3
1
              HEAD IN LAYER   1 AT END OF TIME STEP  74 IN STRESS PERIOD    3
  ---------------------------------------------------------------------------

            1           2           3           4           5           6           7           8           9          10
           11          12          13          14          15
 ........................................................................................................................
   1    2.300       2.300       2.300       2.300       2.300       2.300       2.300       2.300       2.300       2.300    
        2.300       2.300       2.300       2.300       2.300    
   2    2.799       2.782       2.752       2.732       2.776       2.827       2.860       2.859       2.818       2.820    
        2.830       2.837       2.833       2.822       2.815    
   3    3.109       3.071       2.990       2.894       3.037       3.163       3.241       3.266       3.238       3.255    
        3.288       3.311       3.295       3.267       3.247    
   4    3.289       3.231       3.072       2.641       3.142       3.369       3.493       3.556       3.562       3.611    
        3.691       3.755       3.704       3.635       3.594    
   5    3.388       3.353       3.281       3.200       3.368       3.528       3.650       3.740       3.783       3.879    
        4.053       4.255       4.073       3.919       3.843    
   6    3.408       3.396       3.381       3.389       3.480       3.596       3.708       3.813       3.883       4.021    
        4.334       5.085       4.361       4.076       3.966    
   7    3.349       3.351       3.361       3.394       3.466       3.560       3.663       3.768       3.839       3.947    
        4.130       4.340       4.162       4.012       3.938    
   8    3.212       3.221       3.242       3.281       3.345       3.428       3.523       3.623       3.687       3.761    
        3.861       3.939       3.899       3.836       3.798    
   9    3.008       3.018       3.041       3.080       3.137       3.211       3.299       3.399       3.463       3.519    
        3.582       3.625       3.624       3.604       3.589    
  10    2.747       2.756       2.776       2.809       2.857       2.920       3.003       3.108       3.192       3.245    
        3.294       3.329       3.342       3.340       3.336    
  11    2.442       2.449       2.464       2.487       2.521       2.568       2.636       2.744       2.888       2.952    
        3.001       3.033       3.050       3.057       3.058    
  12    2.244       2.249       2.258       2.274       2.296       2.329       2.374       2.440       2.577       2.659    
        2.706       2.735       2.752       2.760       2.763    
  13    2.171       2.174       2.181       2.193       2.209       2.232       2.262       2.298       2.344       2.388    
        2.418       2.437       2.449       2.455       2.458    
  14    2.093       2.095       2.099       2.105       2.114       2.126       2.140       2.155       2.163       2.177    
        2.190       2.199       2.204       2.208       2.209    
  15    2.012       2.012       2.013       2.014       2.015       2.016       2.017       2.018       2.018       2.019    
        2.020       2.020       2.021       2.021       2.021    
  16    2.042       2.044       2.048       2.054       2.059       2.062       2.060       2.054       2.048       2.043    
        2.040       2.037       2.035       2.034       2.033    
  17    2.070       2.074       2.082       2.093       2.106       2.114       2.105       2.090       2.077       2.066    
        2.058       2.052       2.048       2.045       2.044    
  18    2.094       2.100       2.112       2.130       2.156       2.182       2.154       2.125       2.103       2.086    
        2.074       2.065       2.059       2.055       2.053    
  19    2.111       2.118       2.134       2.160       2.206       2.303       2.203       2.153       2.122       2.100    
        2.085       2.074       2.066       2.062       2.060    
  20    2.120       2.127       2.144       2.170       2.204       2.236       2.201       2.162       2.131       2.108    
        2.091       2.079       2.070       2.065       2.063    

 HEAD WILL BE SAVED ON UNIT   51 AT END OF TIME STEP   74, STRESS PERIOD    3

 DRAWDOWN WILL BE SAVED ON UNIT   52 AT END OF TIME STEP   74, STRESS PERIOD    3
1
  VOLUMETRIC BUDGET FOR ENTIRE MODEL AT END OF TIME STEP   74, STRESS PERIOD   3
  ------------------------------------------------------------------------------

     CUMULATIVE VOLUMES      L**3       RATES FOR THIS TIME STEP      L**3/T
     ------------------                 ------------------------

           IN:                                      IN:
           ---                                      ---
             STORAGE =      142144.5469               STORAGE =         929.3281
       CONSTANT HEAD =       69797.2656         CONSTANT HEAD =           0.0000
               WELLS =       65000.0000                 WELLS =         600.0000
       RIVER LEAKAGE =      211534.9844         RIVER LEAKAGE =           0.0000

            TOTAL IN =      488476.8125              TOTAL IN =        1529.3281

          OUT:                                     OUT:
          ----                                     ----
             STORAGE =      247768.9688               STORAGE =           0.0000
       CONSTANT HEAD =       29309.4473         CONSTANT HEAD =         788.9288
               WELLS =       63000.0000                 WELLS =         100.0000
       RIVER LEAKAGE =      148398.3750         RIVER LEAKAGE =         640.3990

           TOTAL OUT =      488476.7812             TOTAL OUT =        1529.3279

            IN - OUT =       3.1250E-02              IN - OUT =       2.4414E-04

 PERCENT DISCREPANCY =           0.00     PERCENT DISCREPANCY =           0.00






         TIME SUMMARY AT END OF TIME STEP   74 IN STRESS PERIOD    3
                    SECONDS     MINUTES      HOURS       DAYS        YEARS
                    -----------------------------------------------------------
   TIME STEP LENGTH  86400.      1440.0      24.000      1.0000     2.73785E-03
 STRESS PERIOD TIME 6.39360E+06 1.06560E+05  1776.0      74.000     0.20260    
         TOTAL TIME 1.51200E+07 2.52000E+05  4200.0      175.00     0.47912    
1
 
 SOLVING FOR HEAD 

 OUTPUT CONTROL FOR STRESS PERIOD    3   TIME STEP   75
    SAVE HEAD FOR ALL LAYERS
    SAVE DRAWDOWN FOR ALL LAYERS
    SAVE BUDGET
    PRINT HEAD FOR ALL LAYERS
    PRINT BUDGET
 UBDSV1 SAVING "         STORAGE" ON UNIT   1 AT TIME STEP 75, STRESS PERIOD   3
 UBDSV2 SAVING "   CONSTANT HEAD" ON UNIT   1 AT TIME STEP 75, STRESS PERIOD   3
 UBDSV1 SAVING "FLOW RIGHT FACE " ON UNIT   1 AT TIME STEP 75, STRESS PERIOD   3
 UBDSV1 SAVING "FLOW FRONT FACE " ON UNIT   1 AT TIME STEP 75, STRESS PERIOD   3
1
              HEAD IN LAYER   1 AT END OF TIME STEP  75 IN STRESS PERIOD    3
  ---------------------------------------------------------------------------

            1           2           3           4           5           6           7           8           9          10
           11          12          13          14          15
 ........................................................................................................................
   1    2.250       2.250       2.250       2.250       2.250       2.250       2.250       2.250       2.250       2.250    
        2.250       2.250       2.250       2.250       2.250    
   2    2.756       2.739       2.709       2.689       2.733       2.784       2.816       2.815       2.773       2.775    
        2.785       2.792       2.788       2.777       2.770    
   3    3.073       3.035       2.954       2.857       3.000       3.125       3.202       3.227       3.198       3.216    
        3.248       3.270       3.255       3.226       3.207    
   4    3.259       3.201       3.041       2.609       3.110       3.337       3.460       3.522       3.527       3.576    
        3.656       3.720       3.668       3.600       3.559    
   5    3.364       3.328       3.256       3.175       3.342       3.500       3.622       3.711       3.753       3.848    
        4.022       4.224       4.041       3.888       3.812    
   6    3.389       3.376       3.360       3.367       3.458       3.573       3.684       3.788       3.857       3.995    
        4.307       5.059       4.334       4.048       3.939    
   7    3.333       3.334       3.345       3.377       3.448       3.541       3.643       3.747       3.816       3.924    
        4.107       4.316       4.139       3.989       3.914    
   8    3.200       3.208       3.228       3.268       3.331       3.412       3.506       3.605       3.668       3.742    
        3.841       3.920       3.879       3.816       3.778    
   9    2.998       3.008       3.031       3.069       3.125       3.198       3.286       3.384       3.448       3.503    
        3.565       3.609       3.608       3.587       3.572    
  10    2.740       2.749       2.769       2.802       2.849       2.912       2.993       3.097       3.180       3.232    
        3.282       3.316       3.328       3.327       3.323    
  11    2.438       2.445       2.460       2.482       2.516       2.563       2.630       2.737       2.879       2.943    
        2.991       3.023       3.040       3.046       3.048    
  12    2.242       2.246       2.256       2.271       2.294       2.326       2.371       2.436       2.571       2.652    
        2.700       2.728       2.745       2.753       2.756    
  13    2.169       2.173       2.180       2.191       2.207       2.230       2.259       2.295       2.341       2.384    
        2.414       2.433       2.445       2.451       2.453    
  14    2.092       2.094       2.098       2.104       2.113       2.125       2.139       2.154       2.161       2.176    
        2.188       2.197       2.202       2.206       2.207    
  15    2.012       2.012       2.013       2.014       2.015       2.016       2.017       2.018       2.018       2.019    
        2.020       2.020       2.020       2.021       2.021    
  16    2.042       2.044       2.048       2.053       2.059       2.062       2.059       2.054       2.048       2.043    
        2.039       2.036       2.034       2.033       2.032    
  17    2.070       2.074       2.081       2.093       2.105       2.113       2.104       2.090       2.077       2.066    
        2.057       2.051       2.047       2.045       2.043    
  18    2.093       2.099       2.111       2.130       2.156       2.181       2.153       2.125       2.102       2.085    
        2.073       2.064       2.058       2.054       2.052    
  19    2.110       2.117       2.133       2.159       2.205       2.302       2.202       2.152       2.121       2.099    
        2.084       2.073       2.066       2.061       2.059    
  20    2.119       2.127       2.143       2.169       2.203       2.235       2.200       2.161       2.130       2.107    
        2.090       2.078       2.070       2.064       2.062    

 HEAD WILL BE SAVED ON UNIT   51 AT END OF TIME STEP   75, STRESS PERIOD    3

 DRAWDOWN WILL BE SAVED ON UNIT   52 AT END OF TIME STEP   75, STRESS PERIOD    3
1
  VOLUMETRIC BUDGET FOR ENTIRE MODEL AT END OF TIME STEP   75, STRESS PERIOD   3
  ------------------------------------------------------------------------------

     CUMULATIVE VOLUMES      L**3       RATES FOR THIS TIME STEP      L**3/T
     ------------------                 ------------------------

           IN:                                      IN:
           ---                                      ---
             STORAGE =      143075.8281               STORAGE =         931.2856
       CONSTANT HEAD =       69797.2656         CONSTANT HEAD =           0.0000
               WELLS =       65600.0000                 WELLS =         600.0000
       RIVER LEAKAGE =      211534.9844         RIVER LEAKAGE =           0.0000

            TOTAL IN =      490008.0625              TOTAL IN =        1531.2856

          OUT:                                     OUT:
          ----                                     ----
             STORAGE =      247768.9688               STORAGE =           0.0000
       CONSTANT HEAD =       30106.0742         CONSTANT HEAD =         796.6271
               WELLS =       63100.0000                 WELLS =         100.0000
       RIVER LEAKAGE =      149033.0312         RIVER LEAKAGE =         634.6596

           TOTAL OUT =      490008.0625             TOTAL OUT =        1531.2866

            IN - OUT =           0.0000              IN - OUT =      -9.7656E-04

 PERCENT DISCREPANCY =           0.00     PERCENT DISCREPANCY =          -0.00






         TIME SUMMARY AT END OF TIME STEP   75 IN STRESS PERIOD    3
                    SECONDS     MINUTES      HOURS       DAYS        YEARS
                    -----------------------------------------------------------
   TIME STEP LENGTH  86400.      1440.0      24.000      1.0000     2.73785E-03
 STRESS PERIOD TIME 6.48000E+06 1.08000E+05  1800.0      75.000     0.20534    
         TOTAL TIME 1.52064E+07 2.53440E+05  4224.0      176.00     0.48186    
1
 
 SOLVING FOR HEAD 

 OUTPUT CONTROL FOR STRESS PERIOD    3   TIME STEP   76
    SAVE HEAD FOR ALL LAYERS
    SAVE DRAWDOWN FOR ALL LAYERS
    SAVE BUDGET
    PRINT HEAD FOR ALL LAYERS
    PRINT BUDGET
 UBDSV1 SAVING "         STORAGE" ON UNIT   1 AT TIME STEP 76, STRESS PERIOD   3
 UBDSV2 SAVING "   CONSTANT HEAD" ON UNIT   1 AT TIME STEP 76, STRESS PERIOD   3
 UBDSV1 SAVING "FLOW RIGHT FACE " ON UNIT   1 AT TIME STEP 76, STRESS PERIOD   3
 UBDSV1 SAVING "FLOW FRONT FACE " ON UNIT   1 AT TIME STEP 76, STRESS PERIOD   3
1
              HEAD IN LAYER   1 AT END OF TIME STEP  76 IN STRESS PERIOD    3
  ---------------------------------------------------------------------------

            1           2           3           4           5           6           7           8           9          10
           11          12          13          14          15
 ........................................................................................................................
   1    2.200       2.200       2.200       2.200       2.200       2.200       2.200       2.200       2.200       2.200    
        2.200       2.200       2.200       2.200       2.200    
   2    2.713       2.696       2.666       2.646       2.689       2.740       2.772       2.770       2.728       2.730    
        2.740       2.747       2.743       2.732       2.725    
   3    3.037       2.998       2.917       2.820       2.963       3.088       3.164       3.188       3.159       3.176    
        3.208       3.230       3.215       3.186       3.167    
   4    3.230       3.171       3.011       2.578       3.078       3.305       3.426       3.488       3.492       3.541    
        3.620       3.684       3.633       3.564       3.523    
   5    3.339       3.303       3.230       3.149       3.316       3.473       3.593       3.681       3.722       3.818    
        3.991       4.193       4.010       3.856       3.780    
   6    3.368       3.356       3.339       3.346       3.436       3.550       3.660       3.762       3.831       3.968    
        4.280       5.032       4.306       4.021       3.911    
   7    3.316       3.318       3.328       3.360       3.430       3.522       3.623       3.725       3.794       3.901    
        4.083       4.293       4.115       3.965       3.890    
   8    3.187       3.195       3.215       3.254       3.316       3.397       3.490       3.587       3.649       3.723    
        3.822       3.900       3.859       3.796       3.758    
   9    2.988       2.999       3.021       3.059       3.114       3.186       3.273       3.370       3.433       3.488    
        3.549       3.593       3.591       3.571       3.555    
  10    2.733       2.742       2.762       2.794       2.841       2.903       2.984       3.086       3.168       3.220    
        3.269       3.303       3.315       3.313       3.309    
  11    2.435       2.441       2.455       2.478       2.511       2.558       2.624       2.730       2.871       2.933    
        2.981       3.013       3.030       3.036       3.037    
  12    2.240       2.244       2.254       2.269       2.291       2.323       2.367       2.432       2.566       2.646    
        2.693       2.721       2.737       2.745       2.748    
  13    2.168       2.171       2.178       2.189       2.206       2.228       2.257       2.293       2.337       2.381    
        2.410       2.429       2.440       2.446       2.449    
  14    2.091       2.093       2.097       2.103       2.112       2.124       2.138       2.152       2.160       2.174    
        2.186       2.195       2.200       2.204       2.205    
  15    2.011       2.012       2.012       2.013       2.015       2.016       2.017       2.018       2.018       2.019    
        2.019       2.020       2.020       2.020       2.020    
  16    2.041       2.044       2.048       2.053       2.059       2.062       2.059       2.054       2.048       2.043    
        2.039       2.036       2.034       2.033       2.032    
  17    2.069       2.073       2.081       2.092       2.105       2.113       2.104       2.089       2.076       2.065    
        2.057       2.051       2.047       2.044       2.043    
  18    2.092       2.098       2.110       2.129       2.155       2.180       2.152       2.124       2.101       2.084    
        2.072       2.063       2.057       2.053       2.052    
  19    2.109       2.116       2.132       2.159       2.205       2.301       2.201       2.152       2.120       2.099    
        2.083       2.072       2.065       2.060       2.058    
  20    2.118       2.126       2.142       2.168       2.203       2.234       2.199       2.160       2.129       2.106    
        2.089       2.077       2.069       2.064       2.061    

 HEAD WILL BE SAVED ON UNIT   51 AT END OF TIME STEP   76, STRESS PERIOD    3

 DRAWDOWN WILL BE SAVED ON UNIT   52 AT END OF TIME STEP   76, STRESS PERIOD    3
1
  VOLUMETRIC BUDGET FOR ENTIRE MODEL AT END OF TIME STEP   76, STRESS PERIOD   3
  ------------------------------------------------------------------------------

     CUMULATIVE VOLUMES      L**3       RATES FOR THIS TIME STEP      L**3/T
     ------------------                 ------------------------

           IN:                                      IN:
           ---                                      ---
             STORAGE =      144009.0625               STORAGE =         933.2382
       CONSTANT HEAD =       69797.2656         CONSTANT HEAD =           0.0000
               WELLS =       66200.0000                 WELLS =         600.0000
       RIVER LEAKAGE =      211534.9844         RIVER LEAKAGE =           0.0000

            TOTAL IN =      491541.3125              TOTAL IN =        1533.2382

          OUT:                                     OUT:
          ----                                     ----
             STORAGE =      247768.9688               STORAGE =           0.0000
       CONSTANT HEAD =       30910.3359         CONSTANT HEAD =         804.2623
               WELLS =       63200.0000                 WELLS =         100.0000
       RIVER LEAKAGE =      149662.0000         RIVER LEAKAGE =         628.9756

           TOTAL OUT =      491541.3125             TOTAL OUT =        1533.2379

            IN - OUT =           0.0000              IN - OUT =       2.4414E-04

 PERCENT DISCREPANCY =           0.00     PERCENT DISCREPANCY =           0.00






         TIME SUMMARY AT END OF TIME STEP   76 IN STRESS PERIOD    3
                    SECONDS     MINUTES      HOURS       DAYS        YEARS
                    -----------------------------------------------------------
   TIME STEP LENGTH  86400.      1440.0      24.000      1.0000     2.73785E-03
 STRESS PERIOD TIME 6.56640E+06 1.09440E+05  1824.0      76.000     0.20808    
         TOTAL TIME 1.52928E+07 2.54880E+05  4248.0      177.00     0.48460    
1
 
 SOLVING FOR HEAD 

 OUTPUT CONTROL FOR STRESS PERIOD    3   TIME STEP   77
    SAVE HEAD FOR ALL LAYERS
    SAVE DRAWDOWN FOR ALL LAYERS
    SAVE BUDGET
    PRINT HEAD FOR ALL LAYERS
    PRINT BUDGET
 UBDSV1 SAVING "         STORAGE" ON UNIT   1 AT TIME STEP 77, STRESS PERIOD   3
 UBDSV2 SAVING "   CONSTANT HEAD" ON UNIT   1 AT TIME STEP 77, STRESS PERIOD   3
 UBDSV1 SAVING "FLOW RIGHT FACE " ON UNIT   1 AT TIME STEP 77, STRESS PERIOD   3
 UBDSV1 SAVING "FLOW FRONT FACE " ON UNIT   1 AT TIME STEP 77, STRESS PERIOD   3
1
              HEAD IN LAYER   1 AT END OF TIME STEP  77 IN STRESS PERIOD    3
  ---------------------------------------------------------------------------

            1           2           3           4           5           6           7           8           9          10
           11          12          13          14          15
 ........................................................................................................................
   1    2.150       2.150       2.150       2.150       2.150       2.150       2.150       2.150       2.150       2.150    
        2.150       2.150       2.150       2.150       2.150    
   2    2.670       2.653       2.623       2.602       2.646       2.696       2.728       2.726       2.683       2.685    
        2.695       2.702       2.698       2.687       2.680    
   3    3.001       2.962       2.881       2.783       2.926       3.050       3.126       3.149       3.119       3.136    
        3.168       3.190       3.174       3.146       3.126    
   4    3.199       3.141       2.980       2.547       3.047       3.272       3.393       3.453       3.457       3.505    
        3.585       3.649       3.597       3.528       3.487    
   5    3.314       3.278       3.205       3.123       3.289       3.446       3.565       3.652       3.692       3.787    
        3.960       4.162       3.978       3.825       3.748    
   6    3.348       3.336       3.318       3.325       3.414       3.527       3.636       3.737       3.804       3.941    
        4.254       5.005       4.279       3.993       3.884    
   7    3.300       3.302       3.311       3.342       3.412       3.503       3.603       3.704       3.771       3.878    
        4.060       4.270       4.092       3.941       3.866    
   8    3.174       3.182       3.202       3.240       3.301       3.381       3.473       3.570       3.631       3.703    
        3.802       3.880       3.838       3.776       3.737    
   9    2.979       2.989       3.011       3.048       3.103       3.174       3.260       3.356       3.417       3.472    
        3.533       3.576       3.574       3.554       3.538    
  10    2.726       2.735       2.755       2.787       2.832       2.894       2.974       3.075       3.156       3.207    
        3.256       3.290       3.301       3.300       3.296    
  11    2.431       2.437       2.451       2.474       2.506       2.552       2.618       2.723       2.862       2.924    
        2.971       3.003       3.019       3.025       3.027    
  12    2.237       2.242       2.251       2.266       2.288       2.320       2.364       2.428       2.560       2.640    
        2.686       2.714       2.730       2.738       2.741    
  13    2.166       2.170       2.177       2.188       2.204       2.226       2.255       2.290       2.334       2.377    
        2.406       2.425       2.436       2.442       2.445    
  14    2.090       2.092       2.096       2.102       2.111       2.123       2.137       2.151       2.158       2.172    
        2.184       2.193       2.198       2.202       2.203    
  15    2.011       2.012       2.012       2.013       2.015       2.016       2.017       2.018       2.018       2.019    
        2.019       2.020       2.020       2.020       2.020    
  16    2.041       2.043       2.047       2.053       2.058       2.061       2.059       2.053       2.047       2.042    
        2.038       2.036       2.034       2.032       2.032    
  17    2.069       2.073       2.080       2.092       2.104       2.112       2.103       2.089       2.075       2.065    
        2.056       2.050       2.046       2.043       2.042    
  18    2.092       2.098       2.110       2.128       2.154       2.180       2.152       2.123       2.101       2.084    
        2.071       2.063       2.056       2.053       2.051    
  19    2.108       2.116       2.131       2.158       2.204       2.300       2.200       2.151       2.120       2.098    
        2.082       2.071       2.064       2.059       2.057    
  20    2.117       2.125       2.141       2.167       2.202       2.234       2.198       2.159       2.128       2.105    
        2.088       2.076       2.068       2.063       2.060    

 HEAD WILL BE SAVED ON UNIT   51 AT END OF TIME STEP   77, STRESS PERIOD    3

 DRAWDOWN WILL BE SAVED ON UNIT   52 AT END OF TIME STEP   77, STRESS PERIOD    3
1
  VOLUMETRIC BUDGET FOR ENTIRE MODEL AT END OF TIME STEP   77, STRESS PERIOD   3
  ------------------------------------------------------------------------------

     CUMULATIVE VOLUMES      L**3       RATES FOR THIS TIME STEP      L**3/T
     ------------------                 ------------------------

           IN:                                      IN:
           ---                                      ---
             STORAGE =      144944.2344               STORAGE =         935.1794
       CONSTANT HEAD =       69797.2656         CONSTANT HEAD =           0.0000
               WELLS =       66800.0000                 WELLS =         600.0000
       RIVER LEAKAGE =      211534.9844         RIVER LEAKAGE =           0.0000

            TOTAL IN =      493076.5000              TOTAL IN =        1535.1794

          OUT:                                     OUT:
          ----                                     ----
             STORAGE =      247768.9688               STORAGE =           0.0000
       CONSTANT HEAD =       31722.1738         CONSTANT HEAD =         811.8371
               WELLS =       63300.0000                 WELLS =         100.0000
       RIVER LEAKAGE =      150285.3438         RIVER LEAKAGE =         623.3430

           TOTAL OUT =      493076.5000             TOTAL OUT =        1535.1801

            IN - OUT =           0.0000              IN - OUT =      -6.1035E-04

 PERCENT DISCREPANCY =           0.00     PERCENT DISCREPANCY =          -0.00






         TIME SUMMARY AT END OF TIME STEP   77 IN STRESS PERIOD    3
                    SECONDS     MINUTES      HOURS       DAYS        YEARS
                    -----------------------------------------------------------
   TIME STEP LENGTH  86400.      1440.0      24.000      1.0000     2.73785E-03
 STRESS PERIOD TIME 6.65280E+06 1.10880E+05  1848.0      77.000     0.21081    
         TOTAL TIME 1.53792E+07 2.56320E+05  4272.0      178.00     0.48734    
1
 
 SOLVING FOR HEAD 

 OUTPUT CONTROL FOR STRESS PERIOD    3   TIME STEP   78
    SAVE HEAD FOR ALL LAYERS
    SAVE DRAWDOWN FOR ALL LAYERS
    SAVE BUDGET
    PRINT HEAD FOR ALL LAYERS
    PRINT BUDGET
 UBDSV1 SAVING "         STORAGE" ON UNIT   1 AT TIME STEP 78, STRESS PERIOD   3
 UBDSV2 SAVING "   CONSTANT HEAD" ON UNIT   1 AT TIME STEP 78, STRESS PERIOD   3
 UBDSV1 SAVING "FLOW RIGHT FACE " ON UNIT   1 AT TIME STEP 78, STRESS PERIOD   3
 UBDSV1 SAVING "FLOW FRONT FACE " ON UNIT   1 AT TIME STEP 78, STRESS PERIOD   3
1
              HEAD IN LAYER   1 AT END OF TIME STEP  78 IN STRESS PERIOD    3
  ---------------------------------------------------------------------------

            1           2           3           4           5           6           7           8           9          10
           11          12          13          14          15
 ........................................................................................................................
   1    2.100       2.100       2.100       2.100       2.100       2.100       2.100       2.100       2.100       2.100    
        2.100       2.100       2.100       2.100       2.100    
   2    2.628       2.610       2.580       2.559       2.602       2.653       2.684       2.682       2.639       2.640    
        2.650       2.657       2.652       2.642       2.635    
   3    2.965       2.926       2.844       2.746       2.888       3.012       3.087       3.110       3.079       3.096    
        3.128       3.150       3.134       3.105       3.086    
   4    3.169       3.110       2.949       2.515       3.015       3.240       3.360       3.419       3.422       3.470    
        3.550       3.613       3.561       3.492       3.451    
   5    3.289       3.253       3.179       3.097       3.262       3.418       3.536       3.622       3.661       3.756    
        3.929       4.133       3.948       3.793       3.717    
   6    3.328       3.315       3.297       3.303       3.392       3.504       3.612       3.711       3.778       3.915    
        4.228       4.985       4.253       3.966       3.856    
   7    3.284       3.285       3.294       3.325       3.393       3.484       3.582       3.682       3.749       3.855    
        4.038       4.248       4.068       3.917       3.842    
   8    3.161       3.169       3.188       3.226       3.286       3.366       3.456       3.551       3.612       3.684    
        3.783       3.860       3.818       3.755       3.717    
   9    2.969       2.979       3.000       3.037       3.091       3.162       3.247       3.341       3.402       3.456    
        3.517       3.560       3.558       3.537       3.521    
  10    2.719       2.728       2.748       2.779       2.824       2.885       2.964       3.064       3.144       3.194    
        3.243       3.276       3.288       3.286       3.282    
  11    2.427       2.433       2.447       2.469       2.502       2.547       2.612       2.716       2.853       2.915    
        2.962       2.993       3.009       3.015       3.016    
  12    2.235       2.240       2.249       2.264       2.286       2.317       2.360       2.424       2.555       2.633    
        2.679       2.707       2.723       2.731       2.733    
  13    2.165       2.168       2.175       2.186       2.202       2.224       2.252       2.287       2.331       2.373    
        2.402       2.421       2.432       2.438       2.440    
  14    2.089       2.091       2.095       2.101       2.110       2.122       2.135       2.150       2.157       2.171    
        2.183       2.191       2.197       2.200       2.201    
  15    2.011       2.012       2.012       2.013       2.014       2.016       2.017       2.017       2.018       2.018    
        2.019       2.020       2.020       2.020       2.020    
  16    2.041       2.043       2.047       2.052       2.058       2.061       2.058       2.053       2.047       2.042    
        2.038       2.035       2.033       2.032       2.031    
  17    2.068       2.072       2.080       2.091       2.104       2.112       2.103       2.088       2.075       2.064    
        2.056       2.050       2.046       2.043       2.042    
  18    2.091       2.097       2.109       2.128       2.154       2.179       2.151       2.123       2.100       2.083    
        2.071       2.062       2.056       2.052       2.050    
  19    2.108       2.115       2.131       2.157       2.203       2.300       2.200       2.150       2.119       2.097    
        2.082       2.071       2.063       2.059       2.056    
  20    2.116       2.124       2.141       2.167       2.201       2.233       2.197       2.159       2.127       2.104    
        2.087       2.075       2.067       2.062       2.060    

 HEAD WILL BE SAVED ON UNIT   51 AT END OF TIME STEP   78, STRESS PERIOD    3

 DRAWDOWN WILL BE SAVED ON UNIT   52 AT END OF TIME STEP   78, STRESS PERIOD    3
1
  VOLUMETRIC BUDGET FOR ENTIRE MODEL AT END OF TIME STEP   78, STRESS PERIOD   3
  ------------------------------------------------------------------------------

     CUMULATIVE VOLUMES      L**3       RATES FOR THIS TIME STEP      L**3/T
     ------------------                 ------------------------

           IN:                                      IN:
           ---                                      ---
             STORAGE =      145881.3594               STORAGE =         937.1225
       CONSTANT HEAD =       69797.2656         CONSTANT HEAD =           0.0000
               WELLS =       67400.0000                 WELLS =         600.0000
       RIVER LEAKAGE =      211534.9844         RIVER LEAKAGE =           0.0000

            TOTAL IN =      494613.6250              TOTAL IN =        1537.1226

          OUT:                                     OUT:
          ----                                     ----
             STORAGE =      247768.9688               STORAGE =           0.0000
       CONSTANT HEAD =       32541.5430         CONSTANT HEAD =         819.3682
               WELLS =       63400.0000                 WELLS =         100.0000
       RIVER LEAKAGE =      150903.0938         RIVER LEAKAGE =         617.7545

           TOTAL OUT =      494613.5938             TOTAL OUT =        1537.1226

            IN - OUT =       3.1250E-02              IN - OUT =           0.0000

 PERCENT DISCREPANCY =           0.00     PERCENT DISCREPANCY =           0.00






         TIME SUMMARY AT END OF TIME STEP   78 IN STRESS PERIOD    3
                    SECONDS     MINUTES      HOURS       DAYS        YEARS
                    -----------------------------------------------------------
   TIME STEP LENGTH  86400.      1440.0      24.000      1.0000     2.73785E-03
 STRESS PERIOD TIME 6.73920E+06 1.12320E+05  1872.0      78.000     0.21355    
         TOTAL TIME 1.54656E+07 2.57760E+05  4296.0      179.00     0.49008    
1
 
 SOLVING FOR HEAD 

 OUTPUT CONTROL FOR STRESS PERIOD    3   TIME STEP   79
    SAVE HEAD FOR ALL LAYERS
    SAVE DRAWDOWN FOR ALL LAYERS
    SAVE BUDGET
    PRINT HEAD FOR ALL LAYERS
    PRINT BUDGET
 UBDSV1 SAVING "         STORAGE" ON UNIT   1 AT TIME STEP 79, STRESS PERIOD   3
 UBDSV2 SAVING "   CONSTANT HEAD" ON UNIT   1 AT TIME STEP 79, STRESS PERIOD   3
 UBDSV1 SAVING "FLOW RIGHT FACE " ON UNIT   1 AT TIME STEP 79, STRESS PERIOD   3
 UBDSV1 SAVING "FLOW FRONT FACE " ON UNIT   1 AT TIME STEP 79, STRESS PERIOD   3
1
              HEAD IN LAYER   1 AT END OF TIME STEP  79 IN STRESS PERIOD    3
  ---------------------------------------------------------------------------

            1           2           3           4           5           6           7           8           9          10
           11          12          13          14          15
 ........................................................................................................................
   1    2.050       2.050       2.050       2.050       2.050       2.050       2.050       2.050       2.050       2.050    
        2.050       2.050       2.050       2.050       2.050    
   2    2.585       2.567       2.537       2.516       2.559       2.609       2.640       2.637       2.594       2.595    
        2.606       2.612       2.607       2.597       2.590    
   3    2.929       2.889       2.807       2.709       2.851       2.974       3.049       3.070       3.039       3.056    
        3.088       3.110       3.094       3.065       3.045    
   4    3.139       3.080       2.918       2.483       2.983       3.207       3.326       3.385       3.387       3.435    
        3.515       3.578       3.526       3.456       3.415    
   5    3.264       3.228       3.154       3.070       3.235       3.390       3.508       3.592       3.631       3.726    
        3.899       4.103       3.917       3.762       3.685    
   6    3.307       3.294       3.276       3.281       3.369       3.480       3.587       3.686       3.751       3.889    
        4.203       4.962       4.227       3.939       3.828    
   7    3.267       3.268       3.277       3.307       3.375       3.464       3.562       3.660       3.726       3.833    
        4.015       4.226       4.046       3.894       3.819    
   8    3.148       3.155       3.175       3.212       3.272       3.350       3.440       3.533       3.593       3.665    
        3.763       3.841       3.799       3.735       3.697    
   9    2.959       2.969       2.990       3.026       3.080       3.150       3.233       3.327       3.386       3.440    
        3.501       3.543       3.541       3.520       3.504    
  10    2.712       2.721       2.740       2.771       2.816       2.876       2.954       3.053       3.131       3.182    
        3.230       3.263       3.274       3.272       3.268    
  11    2.423       2.429       2.443       2.465       2.497       2.542       2.606       2.709       2.845       2.905    
        2.952       2.983       2.999       3.004       3.005    
  12    2.233       2.238       2.247       2.261       2.283       2.314       2.357       2.420       2.549       2.627    
        2.672       2.700       2.716       2.723       2.726    
  13    2.163       2.167       2.173       2.184       2.200       2.221       2.250       2.284       2.328       2.370    
        2.398       2.416       2.427       2.433       2.436    
  14    2.089       2.091       2.094       2.100       2.109       2.120       2.134       2.148       2.155       2.169    
        2.181       2.189       2.195       2.198       2.199    
  15    2.011       2.012       2.012       2.013       2.014       2.016       2.017       2.017       2.017       2.018    
        2.019       2.019       2.020       2.020       2.020    
  16    2.041       2.043       2.047       2.052       2.058       2.061       2.058       2.053       2.047       2.042    
        2.038       2.035       2.033       2.032       2.031    
  17    2.068       2.072       2.080       2.091       2.103       2.111       2.102       2.088       2.075       2.064    
        2.055       2.049       2.045       2.042       2.041    
  18    2.091       2.096       2.108       2.127       2.153       2.179       2.151       2.122       2.099       2.083    
        2.070       2.061       2.055       2.051       2.050    
  19    2.107       2.114       2.130       2.157       2.202       2.299       2.199       2.149       2.118       2.096    
        2.081       2.070       2.063       2.058       2.056    
  20    2.116       2.124       2.140       2.166       2.200       2.232       2.197       2.158       2.127       2.103    
        2.087       2.075       2.066       2.061       2.059    

 HEAD WILL BE SAVED ON UNIT   51 AT END OF TIME STEP   79, STRESS PERIOD    3

 DRAWDOWN WILL BE SAVED ON UNIT   52 AT END OF TIME STEP   79, STRESS PERIOD    3
1
  VOLUMETRIC BUDGET FOR ENTIRE MODEL AT END OF TIME STEP   79, STRESS PERIOD   3
  ------------------------------------------------------------------------------

     CUMULATIVE VOLUMES      L**3       RATES FOR THIS TIME STEP      L**3/T
     ------------------                 ------------------------

           IN:                                      IN:
           ---                                      ---
             STORAGE =      146820.4375               STORAGE =         939.0770
       CONSTANT HEAD =       69797.2656         CONSTANT HEAD =           0.0000
               WELLS =       68000.0000                 WELLS =         600.0000
       RIVER LEAKAGE =      211534.9844         RIVER LEAKAGE =           0.0000

            TOTAL IN =      496152.6875              TOTAL IN =        1539.0769

          OUT:                                     OUT:
          ----                                     ----
             STORAGE =      247768.9688               STORAGE =           0.0000
       CONSTANT HEAD =       33368.4141         CONSTANT HEAD =         826.8699
               WELLS =       63500.0000                 WELLS =         100.0000
       RIVER LEAKAGE =      151515.2969         RIVER LEAKAGE =         612.2068

           TOTAL OUT =      496152.6875             TOTAL OUT =        1539.0767

            IN - OUT =           0.0000              IN - OUT =       2.4414E-04

 PERCENT DISCREPANCY =           0.00     PERCENT DISCREPANCY =           0.00






         TIME SUMMARY AT END OF TIME STEP   79 IN STRESS PERIOD    3
                    SECONDS     MINUTES      HOURS       DAYS        YEARS
                    -----------------------------------------------------------
   TIME STEP LENGTH  86400.      1440.0      24.000      1.0000     2.73785E-03
 STRESS PERIOD TIME 6.82560E+06 1.13760E+05  1896.0      79.000     0.21629    
         TOTAL TIME 1.55520E+07 2.59200E+05  4320.0      180.00     0.49281    
1
 
 SOLVING FOR HEAD 

 OUTPUT CONTROL FOR STRESS PERIOD    3   TIME STEP   80
    SAVE HEAD FOR ALL LAYERS
    SAVE DRAWDOWN FOR ALL LAYERS
    SAVE BUDGET
    PRINT HEAD FOR ALL LAYERS
    PRINT BUDGET
 UBDSV1 SAVING "         STORAGE" ON UNIT   1 AT TIME STEP 80, STRESS PERIOD   3
 UBDSV2 SAVING "   CONSTANT HEAD" ON UNIT   1 AT TIME STEP 80, STRESS PERIOD   3
 UBDSV1 SAVING "FLOW RIGHT FACE " ON UNIT   1 AT TIME STEP 80, STRESS PERIOD   3
 UBDSV1 SAVING "FLOW FRONT FACE " ON UNIT   1 AT TIME STEP 80, STRESS PERIOD   3
1
              HEAD IN LAYER   1 AT END OF TIME STEP  80 IN STRESS PERIOD    3
  ---------------------------------------------------------------------------

            1           2           3           4           5           6           7           8           9          10
           11          12          13          14          15
 ........................................................................................................................
   1    2.000       2.000       2.000       2.000       2.000       2.000       2.000       2.000       2.000       2.000    
        2.000       2.000       2.000       2.000       2.000    
   2    2.542       2.524       2.494       2.472       2.515       2.565       2.596       2.593       2.549       2.550    
        2.561       2.567       2.562       2.552       2.544    
   3    2.892       2.853       2.770       2.671       2.813       2.936       3.010       3.031       3.000       3.016    
        3.048       3.070       3.054       3.025       3.005    
   4    3.108       3.049       2.887       2.452       2.951       3.174       3.293       3.350       3.352       3.400    
        3.479       3.543       3.491       3.421       3.379    
   5    3.239       3.202       3.128       3.044       3.208       3.362       3.479       3.562       3.600       3.695    
        3.869       4.073       3.886       3.731       3.653    
   6    3.287       3.273       3.255       3.259       3.347       3.457       3.563       3.660       3.725       3.862    
        4.177       4.937       4.201       3.912       3.801    
   7    3.250       3.251       3.259       3.289       3.356       3.445       3.541       3.639       3.704       3.810    
        3.993       4.204       4.023       3.870       3.795    
   8    3.135       3.142       3.161       3.197       3.257       3.334       3.423       3.515       3.574       3.646    
        3.744       3.821       3.779       3.715       3.676    
   9    2.949       2.958       2.979       3.015       3.068       3.137       3.220       3.312       3.371       3.424    
        3.485       3.527       3.524       3.503       3.487    
  10    2.705       2.714       2.733       2.764       2.808       2.868       2.945       3.042       3.119       3.169    
        3.217       3.250       3.261       3.259       3.254    
  11    2.419       2.425       2.439       2.460       2.492       2.537       2.600       2.702       2.836       2.896    
        2.942       2.973       2.988       2.994       2.995    
  12    2.231       2.235       2.244       2.259       2.280       2.310       2.353       2.415       2.544       2.621    
        2.665       2.693       2.708       2.716       2.718    
  13    2.162       2.165       2.172       2.183       2.198       2.219       2.247       2.282       2.324       2.366    
        2.394       2.412       2.423       2.429       2.431    
  14    2.088       2.090       2.094       2.100       2.108       2.119       2.133       2.147       2.154       2.167    
        2.179       2.187       2.193       2.196       2.197    
  15    2.011       2.011       2.012       2.013       2.014       2.015       2.016       2.017       2.017       2.018    
        2.019       2.019       2.019       2.020       2.020    
  16    2.040       2.042       2.046       2.052       2.057       2.061       2.058       2.052       2.046       2.041    
        2.037       2.035       2.033       2.031       2.031    
  17    2.067       2.071       2.079       2.090       2.103       2.111       2.102       2.087       2.074       2.063    
        2.055       2.049       2.045       2.042       2.041    
  18    2.090       2.096       2.108       2.127       2.153       2.178       2.150       2.121       2.099       2.082    
        2.070       2.061       2.055       2.051       2.049    
  19    2.107       2.114       2.130       2.156       2.202       2.298       2.199       2.149       2.118       2.096    
        2.080       2.069       2.062       2.057       2.055    
  20    2.115       2.123       2.139       2.165       2.200       2.232       2.196       2.157       2.126       2.103    
        2.086       2.074       2.066       2.061       2.058    

 HEAD WILL BE SAVED ON UNIT   51 AT END OF TIME STEP   80, STRESS PERIOD    3

 DRAWDOWN WILL BE SAVED ON UNIT   52 AT END OF TIME STEP   80, STRESS PERIOD    3
1
  VOLUMETRIC BUDGET FOR ENTIRE MODEL AT END OF TIME STEP   80, STRESS PERIOD   3
  ------------------------------------------------------------------------------

     CUMULATIVE VOLUMES      L**3       RATES FOR THIS TIME STEP      L**3/T
     ------------------                 ------------------------

           IN:                                      IN:
           ---                                      ---
             STORAGE =      147761.4844               STORAGE =         941.0436
       CONSTANT HEAD =       69797.2656         CONSTANT HEAD =           0.0000
               WELLS =       68600.0000                 WELLS =         600.0000
       RIVER LEAKAGE =      211534.9844         RIVER LEAKAGE =           0.0000

            TOTAL IN =      497693.7500              TOTAL IN =        1541.0437

          OUT:                                     OUT:
          ----                                     ----
             STORAGE =      247768.9688               STORAGE =           0.0000
       CONSTANT HEAD =       34202.7617         CONSTANT HEAD =         834.3461
               WELLS =       63600.0000                 WELLS =         100.0000
       RIVER LEAKAGE =      152122.0000         RIVER LEAKAGE =         606.6975

           TOTAL OUT =      497693.7188             TOTAL OUT =        1541.0436

            IN - OUT =       3.1250E-02              IN - OUT =       1.2207E-04

 PERCENT DISCREPANCY =           0.00     PERCENT DISCREPANCY =           0.00






         TIME SUMMARY AT END OF TIME STEP   80 IN STRESS PERIOD    3
                    SECONDS     MINUTES      HOURS       DAYS        YEARS
                    -----------------------------------------------------------
   TIME STEP LENGTH  86400.      1440.0      24.000      1.0000     2.73785E-03
 STRESS PERIOD TIME 6.91200E+06 1.15200E+05  1920.0      80.000     0.21903    
         TOTAL TIME 1.56384E+07 2.60640E+05  4344.0      181.00     0.49555    
1
 
 SOLVING FOR HEAD 

 OUTPUT CONTROL FOR STRESS PERIOD    3   TIME STEP   81
    SAVE HEAD FOR ALL LAYERS
    SAVE DRAWDOWN FOR ALL LAYERS
    SAVE BUDGET
    PRINT HEAD FOR ALL LAYERS
    PRINT BUDGET
 UBDSV1 SAVING "         STORAGE" ON UNIT   1 AT TIME STEP 81, STRESS PERIOD   3
 UBDSV2 SAVING "   CONSTANT HEAD" ON UNIT   1 AT TIME STEP 81, STRESS PERIOD   3
 UBDSV1 SAVING "FLOW RIGHT FACE " ON UNIT   1 AT TIME STEP 81, STRESS PERIOD   3
 UBDSV1 SAVING "FLOW FRONT FACE " ON UNIT   1 AT TIME STEP 81, STRESS PERIOD   3
1
              HEAD IN LAYER   1 AT END OF TIME STEP  81 IN STRESS PERIOD    3
  ---------------------------------------------------------------------------

            1           2           3           4           5           6           7           8           9          10
           11          12          13          14          15
 ........................................................................................................................
   1    1.950       1.950       1.950       1.950       1.950       1.950       1.950       1.950       1.950       1.950    
        1.950       1.950       1.950       1.950       1.950    
   2    2.499       2.481       2.451       2.429       2.472       2.521       2.551       2.548       2.504       2.506    
        2.516       2.522       2.517       2.507       2.499    
   3    2.856       2.816       2.733       2.634       2.776       2.898       2.971       2.992       2.960       2.976    
        3.008       3.030       3.014       2.984       2.965    
   4    3.077       3.018       2.856       2.420       2.918       3.142       3.259       3.316       3.317       3.365    
        3.444       3.508       3.455       3.385       3.343    
   5    3.213       3.177       3.102       3.017       3.181       3.334       3.450       3.532       3.570       3.664    
        3.838       4.042       3.856       3.699       3.622    
   6    3.266       3.252       3.234       3.237       3.324       3.433       3.538       3.635       3.699       3.836    
        4.151       4.911       4.175       3.884       3.773    
   7    3.233       3.234       3.242       3.271       3.337       3.425       3.521       3.617       3.681       3.787    
        3.970       4.181       4.000       3.847       3.771    
   8    3.121       3.129       3.147       3.183       3.242       3.318       3.406       3.497       3.555       3.626    
        3.725       3.802       3.759       3.695       3.656    
   9    2.939       2.948       2.969       3.004       3.057       3.125       3.207       3.297       3.355       3.408    
        3.468       3.510       3.508       3.486       3.470    
  10    2.698       2.707       2.726       2.756       2.800       2.859       2.935       3.031       3.107       3.157    
        3.204       3.237       3.247       3.245       3.241    
  11    2.415       2.421       2.434       2.456       2.487       2.531       2.594       2.694       2.827       2.887    
        2.932       2.962       2.978       2.983       2.984    
  12    2.229       2.233       2.242       2.257       2.278       2.307       2.350       2.411       2.538       2.614    
        2.659       2.686       2.701       2.708       2.711    
  13    2.160       2.164       2.170       2.181       2.196       2.217       2.245       2.279       2.321       2.362    
        2.390       2.408       2.419       2.425       2.427    
  14    2.087       2.089       2.093       2.099       2.107       2.118       2.132       2.145       2.152       2.166    
        2.177       2.185       2.191       2.194       2.195    
  15    2.011       2.011       2.012       2.013       2.014       2.015       2.016       2.017       2.017       2.018    
        2.018       2.019       2.019       2.019       2.019    
  16    2.040       2.042       2.046       2.052       2.057       2.060       2.058       2.052       2.046       2.041    
        2.037       2.034       2.032       2.031       2.030    
  17    2.067       2.071       2.079       2.090       2.103       2.111       2.101       2.087       2.074       2.063    
        2.054       2.048       2.044       2.042       2.040    
  18    2.090       2.096       2.108       2.126       2.152       2.178       2.150       2.121       2.098       2.082    
        2.069       2.060       2.054       2.050       2.048    
  19    2.106       2.113       2.129       2.156       2.201       2.298       2.198       2.148       2.117       2.095    
        2.080       2.069       2.061       2.057       2.054    
  20    2.115       2.122       2.139       2.165       2.199       2.231       2.195       2.157       2.125       2.102    
        2.085       2.073       2.065       2.060       2.057    

 HEAD WILL BE SAVED ON UNIT   51 AT END OF TIME STEP   81, STRESS PERIOD    3

 DRAWDOWN WILL BE SAVED ON UNIT   52 AT END OF TIME STEP   81, STRESS PERIOD    3
1
  VOLUMETRIC BUDGET FOR ENTIRE MODEL AT END OF TIME STEP   81, STRESS PERIOD   3
  ------------------------------------------------------------------------------

     CUMULATIVE VOLUMES      L**3       RATES FOR THIS TIME STEP      L**3/T
     ------------------                 ------------------------

           IN:                                      IN:
           ---                                      ---
             STORAGE =      148704.5000               STORAGE =         943.0167
       CONSTANT HEAD =       69797.2656         CONSTANT HEAD =           0.0000
               WELLS =       69200.0000                 WELLS =         600.0000
       RIVER LEAKAGE =      211534.9844         RIVER LEAKAGE =           0.0000

            TOTAL IN =      499236.7500              TOTAL IN =        1543.0167

          OUT:                                     OUT:
          ----                                     ----
             STORAGE =      247768.9688               STORAGE =           0.0000
       CONSTANT HEAD =       35044.5547         CONSTANT HEAD =         841.7948
               WELLS =       63700.0000                 WELLS =         100.0000
       RIVER LEAKAGE =      152723.2188         RIVER LEAKAGE =         601.2216

           TOTAL OUT =      499236.7500             TOTAL OUT =        1543.0164

            IN - OUT =           0.0000              IN - OUT =       3.6621E-04

 PERCENT DISCREPANCY =           0.00     PERCENT DISCREPANCY =           0.00






         TIME SUMMARY AT END OF TIME STEP   81 IN STRESS PERIOD    3
                    SECONDS     MINUTES      HOURS       DAYS        YEARS
                    -----------------------------------------------------------
   TIME STEP LENGTH  86400.      1440.0      24.000      1.0000     2.73785E-03
 STRESS PERIOD TIME 6.99840E+06 1.16640E+05  1944.0      81.000     0.22177    
         TOTAL TIME 1.57248E+07 2.62080E+05  4368.0      182.00     0.49829    
1
 
 SOLVING FOR HEAD 

 OUTPUT CONTROL FOR STRESS PERIOD    3   TIME STEP   82
    SAVE HEAD FOR ALL LAYERS
    SAVE DRAWDOWN FOR ALL LAYERS
    SAVE BUDGET
    PRINT HEAD FOR ALL LAYERS
    PRINT BUDGET
 UBDSV1 SAVING "         STORAGE" ON UNIT   1 AT TIME STEP 82, STRESS PERIOD   3
 UBDSV2 SAVING "   CONSTANT HEAD" ON UNIT   1 AT TIME STEP 82, STRESS PERIOD   3
 UBDSV1 SAVING "FLOW RIGHT FACE " ON UNIT   1 AT TIME STEP 82, STRESS PERIOD   3
 UBDSV1 SAVING "FLOW FRONT FACE " ON UNIT   1 AT TIME STEP 82, STRESS PERIOD   3
1
              HEAD IN LAYER   1 AT END OF TIME STEP  82 IN STRESS PERIOD    3
  ---------------------------------------------------------------------------

            1           2           3           4           5           6           7           8           9          10
           11          12          13          14          15
 ........................................................................................................................
   1    1.900       1.900       1.900       1.900       1.900       1.900       1.900       1.900       1.900       1.900    
        1.900       1.900       1.900       1.900       1.900    
   2    2.455       2.438       2.407       2.386       2.428       2.477       2.507       2.504       2.460       2.461    
        2.471       2.478       2.472       2.462       2.454    
   3    2.819       2.779       2.696       2.597       2.738       2.860       2.933       2.953       2.920       2.936    
        2.968       2.990       2.973       2.944       2.924    
   4    3.047       2.987       2.824       2.387       2.886       3.109       3.226       3.281       3.282       3.330    
        3.409       3.473       3.420       3.349       3.307    
   5    3.188       3.151       3.075       2.991       3.153       3.306       3.421       3.502       3.539       3.634    
        3.807       4.012       3.825       3.668       3.590    
   6    3.245       3.231       3.212       3.215       3.301       3.409       3.514       3.609       3.672       3.809    
        4.124       4.885       4.148       3.857       3.746    
   7    3.216       3.217       3.224       3.253       3.319       3.406       3.500       3.595       3.659       3.765    
        3.947       4.158       3.976       3.823       3.747    
   8    3.108       3.115       3.133       3.168       3.226       3.302       3.389       3.479       3.536       3.607    
        3.705       3.782       3.739       3.675       3.636    
   9    2.929       2.938       2.958       2.993       3.045       3.112       3.193       3.283       3.340       3.392    
        3.452       3.494       3.491       3.469       3.453    
  10    2.691       2.700       2.718       2.748       2.791       2.850       2.925       3.020       3.095       3.144    
        3.191       3.223       3.234       3.231       3.227    
  11    2.411       2.417       2.430       2.451       2.482       2.526       2.588       2.687       2.818       2.877    
        2.922       2.952       2.968       2.973       2.974    
  12    2.227       2.231       2.240       2.254       2.275       2.304       2.346       2.407       2.532       2.608    
        2.652       2.679       2.694       2.701       2.703    
  13    2.159       2.162       2.169       2.179       2.194       2.215       2.243       2.276       2.318       2.358    
        2.386       2.404       2.414       2.420       2.422    
  14    2.086       2.088       2.092       2.098       2.106       2.117       2.130       2.144       2.151       2.164    
        2.175       2.184       2.189       2.192       2.193    
  15    2.011       2.011       2.012       2.013       2.014       2.015       2.016       2.017       2.017       2.018    
        2.018       2.019       2.019       2.019       2.019    
  16    2.040       2.042       2.046       2.051       2.057       2.060       2.057       2.052       2.046       2.041    
        2.037       2.034       2.032       2.031       2.030    
  17    2.067       2.071       2.078       2.090       2.102       2.110       2.101       2.087       2.073       2.062    
        2.054       2.048       2.044       2.041       2.040    
  18    2.089       2.095       2.107       2.126       2.152       2.177       2.149       2.120       2.098       2.081    
        2.069       2.060       2.054       2.050       2.048    
  19    2.106       2.113       2.128       2.155       2.201       2.297       2.197       2.148       2.116       2.095    
        2.079       2.068       2.061       2.056       2.054    
  20    2.114       2.122       2.138       2.164       2.199       2.230       2.195       2.156       2.125       2.102    
        2.085       2.073       2.064       2.059       2.057    

 HEAD WILL BE SAVED ON UNIT   51 AT END OF TIME STEP   82, STRESS PERIOD    3

 DRAWDOWN WILL BE SAVED ON UNIT   52 AT END OF TIME STEP   82, STRESS PERIOD    3
1
  VOLUMETRIC BUDGET FOR ENTIRE MODEL AT END OF TIME STEP   82, STRESS PERIOD   3
  ------------------------------------------------------------------------------

     CUMULATIVE VOLUMES      L**3       RATES FOR THIS TIME STEP      L**3/T
     ------------------                 ------------------------

           IN:                                      IN:
           ---                                      ---
             STORAGE =      149649.4844               STORAGE =         944.9866
       CONSTANT HEAD =       69797.2656         CONSTANT HEAD =           0.0000
               WELLS =       69800.0000                 WELLS =         600.0000
       RIVER LEAKAGE =      211534.9844         RIVER LEAKAGE =           0.0000

            TOTAL IN =      500781.7500              TOTAL IN =        1544.9866

          OUT:                                     OUT:
          ----                                     ----
             STORAGE =      247768.9688               STORAGE =           0.0000
       CONSTANT HEAD =       35893.7656         CONSTANT HEAD =         849.2100
               WELLS =       63800.0000                 WELLS =         100.0000
       RIVER LEAKAGE =      153319.0000         RIVER LEAKAGE =         595.7763

           TOTAL OUT =      500781.7500             TOTAL OUT =        1544.9863

            IN - OUT =           0.0000              IN - OUT =       2.4414E-04

 PERCENT DISCREPANCY =           0.00     PERCENT DISCREPANCY =           0.00






         TIME SUMMARY AT END OF TIME STEP   82 IN STRESS PERIOD    3
                    SECONDS     MINUTES      HOURS       DAYS        YEARS
                    -----------------------------------------------------------
   TIME STEP LENGTH  86400.      1440.0      24.000      1.0000     2.73785E-03
 STRESS PERIOD TIME 7.08480E+06 1.18080E+05  1968.0      82.000     0.22450    
         TOTAL TIME 1.58112E+07 2.63520E+05  4392.0      183.00     0.50103    
1
 
 SOLVING FOR HEAD 

 OUTPUT CONTROL FOR STRESS PERIOD    3   TIME STEP   83
    SAVE HEAD FOR ALL LAYERS
    SAVE DRAWDOWN FOR ALL LAYERS
    SAVE BUDGET
    PRINT HEAD FOR ALL LAYERS
    PRINT BUDGET
 UBDSV1 SAVING "         STORAGE" ON UNIT   1 AT TIME STEP 83, STRESS PERIOD   3
 UBDSV2 SAVING "   CONSTANT HEAD" ON UNIT   1 AT TIME STEP 83, STRESS PERIOD   3
 UBDSV1 SAVING "FLOW RIGHT FACE " ON UNIT   1 AT TIME STEP 83, STRESS PERIOD   3
 UBDSV1 SAVING "FLOW FRONT FACE " ON UNIT   1 AT TIME STEP 83, STRESS PERIOD   3
1
              HEAD IN LAYER   1 AT END OF TIME STEP  83 IN STRESS PERIOD    3
  ---------------------------------------------------------------------------

            1           2           3           4           5           6           7           8           9          10
           11          12          13          14          15
 ........................................................................................................................
   1    1.850       1.850       1.850       1.850       1.850       1.850       1.850       1.850       1.850       1.850    
        1.850       1.850       1.850       1.850       1.850    
   2    2.412       2.395       2.364       2.342       2.384       2.433       2.463       2.459       2.415       2.416    
        2.426       2.433       2.427       2.417       2.409    
   3    2.782       2.742       2.659       2.559       2.700       2.821       2.894       2.913       2.880       2.896    
        2.928       2.950       2.933       2.904       2.884    
   4    3.016       2.956       2.793       2.355       2.854       3.076       3.192       3.247       3.247       3.294    
        3.374       3.437       3.384       3.314       3.272    
   5    3.162       3.125       3.049       2.964       3.126       3.278       3.392       3.472       3.509       3.603    
        3.777       3.981       3.793       3.637       3.559    
   6    3.223       3.210       3.190       3.193       3.278       3.386       3.489       3.583       3.646       3.783    
        4.098       4.859       4.121       3.830       3.718    
   7    3.199       3.200       3.207       3.235       3.300       3.386       3.479       3.573       3.636       3.742    
        3.924       4.135       3.953       3.799       3.723    
   8    3.094       3.101       3.119       3.154       3.211       3.286       3.372       3.461       3.517       3.588    
        3.686       3.763       3.719       3.655       3.615    
   9    2.918       2.927       2.948       2.982       3.033       3.100       3.180       3.268       3.324       3.376    
        3.436       3.477       3.474       3.452       3.436    
  10    2.684       2.693       2.711       2.740       2.783       2.841       2.915       3.009       3.083       3.132    
        3.178       3.210       3.220       3.218       3.213    
  11    2.407       2.413       2.426       2.447       2.478       2.521       2.582       2.680       2.809       2.868    
        2.912       2.942       2.957       2.962       2.963    
  12    2.225       2.229       2.238       2.252       2.272       2.301       2.343       2.403       2.527       2.601    
        2.645       2.671       2.686       2.693       2.696    
  13    2.157       2.160       2.167       2.177       2.192       2.213       2.240       2.273       2.315       2.355    
        2.382       2.400       2.410       2.416       2.418    
  14    2.085       2.087       2.091       2.097       2.105       2.116       2.129       2.142       2.149       2.162    
        2.174       2.182       2.187       2.190       2.191    
  15    2.011       2.011       2.012       2.013       2.014       2.015       2.016       2.017       2.017       2.017    
        2.018       2.019       2.019       2.019       2.019    
  16    2.040       2.042       2.046       2.051       2.057       2.060       2.057       2.051       2.045       2.040    
        2.037       2.034       2.032       2.030       2.030    
  17    2.066       2.070       2.078       2.089       2.102       2.110       2.101       2.086       2.073       2.062    
        2.054       2.048       2.043       2.041       2.039    
  18    2.089       2.095       2.107       2.126       2.151       2.177       2.149       2.120       2.097       2.081    
        2.068       2.059       2.053       2.049       2.047    
  19    2.105       2.112       2.128       2.155       2.200       2.297       2.197       2.147       2.116       2.094    
        2.079       2.068       2.060       2.055       2.053    
  20    2.113       2.121       2.138       2.164       2.198       2.230       2.194       2.155       2.124       2.101    
        2.084       2.072       2.064       2.059       2.056    

 HEAD WILL BE SAVED ON UNIT   51 AT END OF TIME STEP   83, STRESS PERIOD    3

 DRAWDOWN WILL BE SAVED ON UNIT   52 AT END OF TIME STEP   83, STRESS PERIOD    3
1
  VOLUMETRIC BUDGET FOR ENTIRE MODEL AT END OF TIME STEP   83, STRESS PERIOD   3
  ------------------------------------------------------------------------------

     CUMULATIVE VOLUMES      L**3       RATES FOR THIS TIME STEP      L**3/T
     ------------------                 ------------------------

           IN:                                      IN:
           ---                                      ---
             STORAGE =      150596.4375               STORAGE =         946.9477
       CONSTANT HEAD =       69797.2656         CONSTANT HEAD =           0.0000
               WELLS =       70400.0000                 WELLS =         600.0000
       RIVER LEAKAGE =      211534.9844         RIVER LEAKAGE =           0.0000

            TOTAL IN =      502328.6875              TOTAL IN =        1546.9478

          OUT:                                     OUT:
          ----                                     ----
             STORAGE =      247768.9688               STORAGE =           0.0000
       CONSTANT HEAD =       36750.3516         CONSTANT HEAD =         856.5876
               WELLS =       63900.0000                 WELLS =         100.0000
       RIVER LEAKAGE =      153909.3594         RIVER LEAKAGE =         590.3598

           TOTAL OUT =      502328.6875             TOTAL OUT =        1546.9474

            IN - OUT =           0.0000              IN - OUT =       3.6621E-04

 PERCENT DISCREPANCY =           0.00     PERCENT DISCREPANCY =           0.00






         TIME SUMMARY AT END OF TIME STEP   83 IN STRESS PERIOD    3
                    SECONDS     MINUTES      HOURS       DAYS        YEARS
                    -----------------------------------------------------------
   TIME STEP LENGTH  86400.      1440.0      24.000      1.0000     2.73785E-03
 STRESS PERIOD TIME 7.17120E+06 1.19520E+05  1992.0      83.000     0.22724    
         TOTAL TIME 1.58976E+07 2.64960E+05  4416.0      184.00     0.50376    
1
 
 SOLVING FOR HEAD 

 OUTPUT CONTROL FOR STRESS PERIOD    3   TIME STEP   84
    SAVE HEAD FOR ALL LAYERS
    SAVE DRAWDOWN FOR ALL LAYERS
    SAVE BUDGET
    PRINT HEAD FOR ALL LAYERS
    PRINT BUDGET
 UBDSV1 SAVING "         STORAGE" ON UNIT   1 AT TIME STEP 84, STRESS PERIOD   3
 UBDSV2 SAVING "   CONSTANT HEAD" ON UNIT   1 AT TIME STEP 84, STRESS PERIOD   3
 UBDSV1 SAVING "FLOW RIGHT FACE " ON UNIT   1 AT TIME STEP 84, STRESS PERIOD   3
 UBDSV1 SAVING "FLOW FRONT FACE " ON UNIT   1 AT TIME STEP 84, STRESS PERIOD   3
1
              HEAD IN LAYER   1 AT END OF TIME STEP  84 IN STRESS PERIOD    3
  ---------------------------------------------------------------------------

            1           2           3           4           5           6           7           8           9          10
           11          12          13          14          15
 ........................................................................................................................
   1    1.800       1.800       1.800       1.800       1.800       1.800       1.800       1.800       1.800       1.800    
        1.800       1.800       1.800       1.800       1.800    
   2    2.369       2.351       2.321       2.298       2.341       2.389       2.419       2.415       2.370       2.371    
        2.381       2.388       2.382       2.372       2.364    
   3    2.745       2.705       2.622       2.521       2.662       2.783       2.855       2.874       2.840       2.856    
        2.888       2.910       2.893       2.863       2.843    
   4    2.984       2.925       2.761       2.323       2.821       3.042       3.158       3.212       3.212       3.259    
        3.338       3.402       3.349       3.278       3.236    
   5    3.136       3.099       3.023       2.937       3.098       3.250       3.363       3.442       3.478       3.572    
        3.746       3.950       3.762       3.605       3.527    
   6    3.202       3.188       3.168       3.171       3.255       3.362       3.464       3.557       3.619       3.756    
        4.071       4.832       4.094       3.802       3.691    
   7    3.182       3.182       3.189       3.216       3.281       3.366       3.458       3.551       3.613       3.719    
        3.901       4.112       3.930       3.776       3.700    
   8    3.081       3.088       3.105       3.139       3.196       3.270       3.355       3.443       3.498       3.568    
        3.666       3.743       3.699       3.634       3.595    
   9    2.908       2.917       2.937       2.971       3.021       3.087       3.166       3.253       3.309       3.360    
        3.420       3.461       3.457       3.436       3.419    
  10    2.677       2.686       2.703       2.733       2.775       2.832       2.905       2.998       3.071       3.119    
        3.165       3.197       3.207       3.204       3.199    
  11    2.403       2.409       2.422       2.442       2.473       2.515       2.576       2.673       2.801       2.858    
        2.902       2.932       2.947       2.952       2.953    
  12    2.222       2.227       2.235       2.249       2.270       2.298       2.339       2.399       2.521       2.595    
        2.638       2.664       2.679       2.686       2.688    
  13    2.156       2.159       2.165       2.176       2.191       2.211       2.238       2.270       2.311       2.351    
        2.378       2.395       2.406       2.411       2.414    
  14    2.085       2.086       2.090       2.096       2.104       2.115       2.128       2.141       2.148       2.161    
        2.172       2.180       2.185       2.188       2.189    
  15    2.011       2.011       2.012       2.013       2.014       2.015       2.016       2.017       2.017       2.017    
        2.018       2.018       2.019       2.019       2.019    
  16    2.040       2.042       2.046       2.051       2.057       2.060       2.057       2.051       2.045       2.040    
        2.036       2.033       2.031       2.030       2.029    
  17    2.066       2.070       2.078       2.089       2.102       2.110       2.100       2.086       2.073       2.062    
        2.053       2.047       2.043       2.040       2.039    
  18    2.088       2.094       2.106       2.125       2.151       2.176       2.148       2.120       2.097       2.080    
        2.068       2.059       2.053       2.049       2.047    
  19    2.105       2.112       2.128       2.154       2.200       2.296       2.196       2.147       2.115       2.094    
        2.078       2.067       2.060       2.055       2.053    
  20    2.113       2.121       2.137       2.163       2.198       2.229       2.194       2.155       2.124       2.101    
        2.084       2.071       2.063       2.058       2.056    

 HEAD WILL BE SAVED ON UNIT   51 AT END OF TIME STEP   84, STRESS PERIOD    3

 DRAWDOWN WILL BE SAVED ON UNIT   52 AT END OF TIME STEP   84, STRESS PERIOD    3
1
  VOLUMETRIC BUDGET FOR ENTIRE MODEL AT END OF TIME STEP   84, STRESS PERIOD   3
  ------------------------------------------------------------------------------

     CUMULATIVE VOLUMES      L**3       RATES FOR THIS TIME STEP      L**3/T
     ------------------                 ------------------------

           IN:                                      IN:
           ---                                      ---
             STORAGE =      151545.3281               STORAGE =         948.8920
       CONSTANT HEAD =       69797.2656         CONSTANT HEAD =           0.0000
               WELLS =       71000.0000                 WELLS =         600.0000
       RIVER LEAKAGE =      211534.9844         RIVER LEAKAGE =           0.0000

            TOTAL IN =      503877.5625              TOTAL IN =        1548.8920

          OUT:                                     OUT:
          ----                                     ----
             STORAGE =      247768.9688               STORAGE =           0.0000
       CONSTANT HEAD =       37614.2734         CONSTANT HEAD =         863.9227
               WELLS =       64000.0000                 WELLS =         100.0000
       RIVER LEAKAGE =      154494.3281         RIVER LEAKAGE =         584.9695

           TOTAL OUT =      503877.5625             TOTAL OUT =        1548.8922

            IN - OUT =           0.0000              IN - OUT =      -2.4414E-04

 PERCENT DISCREPANCY =           0.00     PERCENT DISCREPANCY =          -0.00






         TIME SUMMARY AT END OF TIME STEP   84 IN STRESS PERIOD    3
                    SECONDS     MINUTES      HOURS       DAYS        YEARS
                    -----------------------------------------------------------
   TIME STEP LENGTH  86400.      1440.0      24.000      1.0000     2.73785E-03
 STRESS PERIOD TIME 7.25760E+06 1.20960E+05  2016.0      84.000     0.22998    
         TOTAL TIME 1.59840E+07 2.66400E+05  4440.0      185.00     0.50650    
1
 
 SOLVING FOR HEAD 

 OUTPUT CONTROL FOR STRESS PERIOD    3   TIME STEP   85
    SAVE HEAD FOR ALL LAYERS
    SAVE DRAWDOWN FOR ALL LAYERS
    SAVE BUDGET
    PRINT HEAD FOR ALL LAYERS
    PRINT BUDGET
 UBDSV1 SAVING "         STORAGE" ON UNIT   1 AT TIME STEP 85, STRESS PERIOD   3
 UBDSV2 SAVING "   CONSTANT HEAD" ON UNIT   1 AT TIME STEP 85, STRESS PERIOD   3
 UBDSV1 SAVING "FLOW RIGHT FACE " ON UNIT   1 AT TIME STEP 85, STRESS PERIOD   3
 UBDSV1 SAVING "FLOW FRONT FACE " ON UNIT   1 AT TIME STEP 85, STRESS PERIOD   3
1
              HEAD IN LAYER   1 AT END OF TIME STEP  85 IN STRESS PERIOD    3
  ---------------------------------------------------------------------------

            1           2           3           4           5           6           7           8           9          10
           11          12          13          14          15
 ........................................................................................................................
   1    1.750       1.750       1.750       1.750       1.750       1.750       1.750       1.750       1.750       1.750    
        1.750       1.750       1.750       1.750       1.750    
   2    2.326       2.308       2.277       2.255       2.297       2.345       2.375       2.370       2.325       2.326    
        2.336       2.343       2.337       2.327       2.319    
   3    2.708       2.668       2.584       2.484       2.624       2.745       2.816       2.834       2.800       2.816    
        2.848       2.869       2.853       2.823       2.803    
   4    2.953       2.893       2.729       2.290       2.788       3.009       3.124       3.178       3.176       3.224    
        3.303       3.366       3.313       3.242       3.200    
   5    3.110       3.072       2.996       2.909       3.071       3.221       3.334       3.412       3.447       3.541    
        3.715       3.919       3.731       3.574       3.496    
   6    3.181       3.166       3.146       3.148       3.232       3.338       3.439       3.531       3.593       3.729    
        4.044       4.806       4.067       3.775       3.663    
   7    3.165       3.165       3.171       3.198       3.262       3.346       3.438       3.529       3.591       3.696    
        3.878       4.089       3.906       3.752       3.676    
   8    3.067       3.074       3.091       3.125       3.181       3.254       3.337       3.424       3.479       3.549    
        3.646       3.723       3.679       3.614       3.575    
   9    2.898       2.907       2.926       2.960       3.010       3.075       3.153       3.239       3.293       3.344    
        3.403       3.444       3.441       3.419       3.402    
  10    2.670       2.678       2.696       2.725       2.766       2.823       2.895       2.987       3.059       3.106    
        3.152       3.183       3.193       3.190       3.186    
  11    2.399       2.405       2.417       2.438       2.468       2.510       2.570       2.666       2.792       2.849    
        2.893       2.922       2.936       2.941       2.942    
  12    2.220       2.224       2.233       2.247       2.267       2.295       2.336       2.395       2.516       2.589    
        2.631       2.657       2.672       2.678       2.681    
  13    2.154       2.157       2.164       2.174       2.189       2.209       2.235       2.268       2.308       2.347    
        2.374       2.391       2.401       2.407       2.409    
  14    2.084       2.086       2.089       2.095       2.103       2.114       2.126       2.140       2.146       2.159    
        2.170       2.178       2.183       2.186       2.187    
  15    2.011       2.011       2.012       2.013       2.014       2.015       2.016       2.016       2.017       2.017    
        2.018       2.018       2.018       2.019       2.019    
  16    2.039       2.041       2.045       2.051       2.056       2.059       2.057       2.051       2.045       2.040    
        2.036       2.033       2.031       2.030       2.029    
  17    2.066       2.070       2.077       2.089       2.101       2.109       2.100       2.086       2.072       2.061    
        2.053       2.047       2.043       2.040       2.039    
  18    2.088       2.094       2.106       2.125       2.150       2.176       2.148       2.119       2.097       2.080    
        2.067       2.058       2.052       2.048       2.047    
  19    2.104       2.112       2.127       2.154       2.199       2.296       2.196       2.146       2.115       2.093    
        2.078       2.067       2.059       2.054       2.052    
  20    2.113       2.120       2.137       2.163       2.197       2.229       2.193       2.154       2.123       2.100    
        2.083       2.071       2.063       2.058       2.055    

 HEAD WILL BE SAVED ON UNIT   51 AT END OF TIME STEP   85, STRESS PERIOD    3

 DRAWDOWN WILL BE SAVED ON UNIT   52 AT END OF TIME STEP   85, STRESS PERIOD    3
1
  VOLUMETRIC BUDGET FOR ENTIRE MODEL AT END OF TIME STEP   85, STRESS PERIOD   3
  ------------------------------------------------------------------------------

     CUMULATIVE VOLUMES      L**3       RATES FOR THIS TIME STEP      L**3/T
     ------------------                 ------------------------

           IN:                                      IN:
           ---                                      ---
             STORAGE =      152496.1406               STORAGE =         950.8150
       CONSTANT HEAD =       69797.2656         CONSTANT HEAD =           0.0000
               WELLS =       71600.0000                 WELLS =         600.0000
       RIVER LEAKAGE =      211534.9844         RIVER LEAKAGE =           0.0000

            TOTAL IN =      505428.3750              TOTAL IN =        1550.8149

          OUT:                                     OUT:
          ----                                     ----
             STORAGE =      247768.9688               STORAGE =           0.0000
       CONSTANT HEAD =       38485.4883         CONSTANT HEAD =         871.2142
               WELLS =       64100.0000                 WELLS =         100.0000
       RIVER LEAKAGE =      155073.9219         RIVER LEAKAGE =         579.6014

           TOTAL OUT =      505428.3750             TOTAL OUT =        1550.8156

            IN - OUT =           0.0000              IN - OUT =      -6.1035E-04

 PERCENT DISCREPANCY =           0.00     PERCENT DISCREPANCY =          -0.00






         TIME SUMMARY AT END OF TIME STEP   85 IN STRESS PERIOD    3
                    SECONDS     MINUTES      HOURS       DAYS        YEARS
                    -----------------------------------------------------------
   TIME STEP LENGTH  86400.      1440.0      24.000      1.0000     2.73785E-03
 STRESS PERIOD TIME 7.34400E+06 1.22400E+05  2040.0      85.000     0.23272    
         TOTAL TIME 1.60704E+07 2.67840E+05  4464.0      186.00     0.50924    
1
 
 SOLVING FOR HEAD 

 OUTPUT CONTROL FOR STRESS PERIOD    3   TIME STEP   86
    SAVE HEAD FOR ALL LAYERS
    SAVE DRAWDOWN FOR ALL LAYERS
    SAVE BUDGET
    PRINT HEAD FOR ALL LAYERS
    PRINT BUDGET
 UBDSV1 SAVING "         STORAGE" ON UNIT   1 AT TIME STEP 86, STRESS PERIOD   3
 UBDSV2 SAVING "   CONSTANT HEAD" ON UNIT   1 AT TIME STEP 86, STRESS PERIOD   3
 UBDSV1 SAVING "FLOW RIGHT FACE " ON UNIT   1 AT TIME STEP 86, STRESS PERIOD   3
 UBDSV1 SAVING "FLOW FRONT FACE " ON UNIT   1 AT TIME STEP 86, STRESS PERIOD   3
1
              HEAD IN LAYER   1 AT END OF TIME STEP  86 IN STRESS PERIOD    3
  ---------------------------------------------------------------------------

            1           2           3           4           5           6           7           8           9          10
           11          12          13          14          15
 ........................................................................................................................
   1    1.700       1.700       1.700       1.700       1.700       1.700       1.700       1.700       1.700       1.700    
        1.700       1.700       1.700       1.700       1.700    
   2    2.282       2.265       2.234       2.211       2.253       2.301       2.330       2.325       2.280       2.281    
        2.291       2.298       2.292       2.282       2.274    
   3    2.671       2.631       2.547       2.446       2.586       2.706       2.777       2.795       2.761       2.776    
        2.808       2.829       2.812       2.783       2.763    
   4    2.922       2.862       2.697       2.258       2.755       2.976       3.091       3.143       3.141       3.188    
        3.267       3.331       3.277       3.206       3.164    
   5    3.083       3.046       2.969       2.882       3.043       3.193       3.304       3.382       3.416       3.510    
        3.684       3.888       3.700       3.542       3.464    
   6    3.159       3.145       3.124       3.125       3.209       3.314       3.414       3.505       3.566       3.702    
        4.017       4.779       4.039       3.747       3.635    
   7    3.147       3.147       3.153       3.179       3.242       3.326       3.417       3.507       3.568       3.673    
        3.855       4.065       3.882       3.728       3.652    
   8    3.053       3.060       3.076       3.110       3.165       3.238       3.320       3.406       3.460       3.530    
        3.627       3.703       3.659       3.594       3.554    
   9    2.887       2.896       2.915       2.948       2.998       3.062       3.139       3.224       3.278       3.328    
        3.387       3.428       3.424       3.402       3.385    
  10    2.663       2.671       2.688       2.717       2.758       2.814       2.885       2.976       3.046       3.094    
        3.139       3.170       3.180       3.177       3.172    
  11    2.395       2.401       2.413       2.433       2.463       2.505       2.564       2.658       2.783       2.839    
        2.883       2.911       2.926       2.931       2.931    
  12    2.218       2.222       2.231       2.244       2.264       2.292       2.332       2.390       2.510       2.582    
        2.624       2.650       2.664       2.671       2.673    
  13    2.153       2.156       2.162       2.172       2.187       2.207       2.233       2.265       2.305       2.344    
        2.370       2.387       2.397       2.402       2.405    
  14    2.083       2.085       2.088       2.094       2.102       2.112       2.125       2.138       2.145       2.157    
        2.168       2.176       2.181       2.184       2.185    
  15    2.011       2.011       2.012       2.012       2.014       2.015       2.016       2.016       2.016       2.017    
        2.018       2.018       2.018       2.018       2.018    
  16    2.039       2.041       2.045       2.051       2.056       2.059       2.056       2.051       2.045       2.040    
        2.036       2.033       2.031       2.029       2.029    
  17    2.066       2.069       2.077       2.088       2.101       2.109       2.100       2.085       2.072       2.061    
        2.053       2.046       2.042       2.040       2.038    
  18    2.088       2.094       2.106       2.124       2.150       2.176       2.148       2.119       2.096       2.079    
        2.067       2.058       2.052       2.048       2.046    
  19    2.104       2.111       2.127       2.153       2.199       2.295       2.196       2.146       2.115       2.093    
        2.077       2.066       2.059       2.054       2.052    
  20    2.112       2.120       2.136       2.162       2.197       2.229       2.193       2.154       2.123       2.100    
        2.083       2.070       2.062       2.057       2.055    

 HEAD WILL BE SAVED ON UNIT   51 AT END OF TIME STEP   86, STRESS PERIOD    3

 DRAWDOWN WILL BE SAVED ON UNIT   52 AT END OF TIME STEP   86, STRESS PERIOD    3
1
  VOLUMETRIC BUDGET FOR ENTIRE MODEL AT END OF TIME STEP   86, STRESS PERIOD   3
  ------------------------------------------------------------------------------

     CUMULATIVE VOLUMES      L**3       RATES FOR THIS TIME STEP      L**3/T
     ------------------                 ------------------------

           IN:                                      IN:
           ---                                      ---
             STORAGE =      153448.8594               STORAGE =         952.7146
       CONSTANT HEAD =       69797.2656         CONSTANT HEAD =           0.0000
               WELLS =       72200.0000                 WELLS =         600.0000
       RIVER LEAKAGE =      211534.9844         RIVER LEAKAGE =           0.0000

            TOTAL IN =      506981.1250              TOTAL IN =        1552.7146

          OUT:                                     OUT:
          ----                                     ----
             STORAGE =      247768.9688               STORAGE =           0.0000
       CONSTANT HEAD =       39363.9492         CONSTANT HEAD =         878.4601
               WELLS =       64200.0000                 WELLS =         100.0000
       RIVER LEAKAGE =      155648.1719         RIVER LEAKAGE =         574.2546

           TOTAL OUT =      506981.0625             TOTAL OUT =        1552.7146

            IN - OUT =       6.2500E-02              IN - OUT =           0.0000

 PERCENT DISCREPANCY =           0.00     PERCENT DISCREPANCY =           0.00






         TIME SUMMARY AT END OF TIME STEP   86 IN STRESS PERIOD    3
                    SECONDS     MINUTES      HOURS       DAYS        YEARS
                    -----------------------------------------------------------
   TIME STEP LENGTH  86400.      1440.0      24.000      1.0000     2.73785E-03
 STRESS PERIOD TIME 7.43040E+06 1.23840E+05  2064.0      86.000     0.23546    
         TOTAL TIME 1.61568E+07 2.69280E+05  4488.0      187.00     0.51198    
1
 
 SOLVING FOR HEAD 

 OUTPUT CONTROL FOR STRESS PERIOD    3   TIME STEP   87
    SAVE HEAD FOR ALL LAYERS
    SAVE DRAWDOWN FOR ALL LAYERS
    SAVE BUDGET
    PRINT HEAD FOR ALL LAYERS
    PRINT BUDGET
 UBDSV1 SAVING "         STORAGE" ON UNIT   1 AT TIME STEP 87, STRESS PERIOD   3
 UBDSV2 SAVING "   CONSTANT HEAD" ON UNIT   1 AT TIME STEP 87, STRESS PERIOD   3
 UBDSV1 SAVING "FLOW RIGHT FACE " ON UNIT   1 AT TIME STEP 87, STRESS PERIOD   3
 UBDSV1 SAVING "FLOW FRONT FACE " ON UNIT   1 AT TIME STEP 87, STRESS PERIOD   3
1
              HEAD IN LAYER   1 AT END OF TIME STEP  87 IN STRESS PERIOD    3
  ---------------------------------------------------------------------------

            1           2           3           4           5           6           7           8           9          10
           11          12          13          14          15
 ........................................................................................................................
   1    1.650       1.650       1.650       1.650       1.650       1.650       1.650       1.650       1.650       1.650    
        1.650       1.650       1.650       1.650       1.650    
   2    2.239       2.221       2.190       2.167       2.209       2.257       2.286       2.281       2.236       2.236    
        2.246       2.253       2.247       2.236       2.229    
   3    2.634       2.593       2.509       2.408       2.548       2.668       2.738       2.755       2.721       2.736    
        2.768       2.789       2.772       2.742       2.722    
   4    2.890       2.830       2.665       2.225       2.723       2.943       3.057       3.108       3.106       3.153    
        3.232       3.295       3.241       3.170       3.128    
   5    3.057       3.019       2.942       2.855       3.015       3.164       3.275       3.352       3.386       3.479    
        3.652       3.857       3.668       3.510       3.432    
   6    3.137       3.123       3.102       3.103       3.185       3.290       3.389       3.479       3.539       3.675    
        3.990       4.752       4.012       3.720       3.608    
   7    3.130       3.129       3.135       3.161       3.223       3.306       3.396       3.485       3.545       3.650    
        3.831       4.042       3.859       3.704       3.628    
   8    3.039       3.046       3.062       3.095       3.150       3.221       3.303       3.388       3.440       3.510    
        3.607       3.683       3.639       3.573       3.534    
   9    2.877       2.885       2.904       2.937       2.986       3.049       3.126       3.209       3.262       3.312    
        3.371       3.411       3.407       3.385       3.368    
  10    2.656       2.664       2.681       2.709       2.750       2.805       2.875       2.965       3.034       3.081    
        3.126       3.157       3.166       3.163       3.158    
  11    2.391       2.396       2.409       2.429       2.458       2.499       2.558       2.651       2.774       2.830    
        2.873       2.901       2.915       2.920       2.921    
  12    2.216       2.220       2.228       2.242       2.261       2.289       2.329       2.386       2.505       2.576    
        2.617       2.643       2.657       2.663       2.666    
  13    2.151       2.154       2.161       2.170       2.185       2.204       2.230       2.262       2.301       2.340    
        2.366       2.383       2.393       2.398       2.400    
  14    2.082       2.084       2.087       2.093       2.101       2.111       2.124       2.137       2.143       2.155    
        2.166       2.174       2.179       2.182       2.183    
  15    2.010       2.011       2.011       2.012       2.014       2.015       2.015       2.016       2.016       2.017    
        2.017       2.018       2.018       2.018       2.018    
  16    2.039       2.041       2.045       2.050       2.056       2.059       2.056       2.050       2.044       2.039    
        2.035       2.033       2.030       2.029       2.029    
  17    2.065       2.069       2.077       2.088       2.101       2.109       2.099       2.085       2.072       2.061    
        2.052       2.046       2.042       2.039       2.038    
  18    2.087       2.093       2.105       2.124       2.150       2.175       2.147       2.118       2.096       2.079    
        2.066       2.058       2.051       2.048       2.046    
  19    2.103       2.111       2.126       2.153       2.199       2.295       2.195       2.145       2.114       2.092    
        2.077       2.066       2.058       2.054       2.051    
  20    2.112       2.120       2.136       2.162       2.196       2.228       2.192       2.154       2.122       2.099    
        2.082       2.070       2.062       2.057       2.054    

 HEAD WILL BE SAVED ON UNIT   51 AT END OF TIME STEP   87, STRESS PERIOD    3

 DRAWDOWN WILL BE SAVED ON UNIT   52 AT END OF TIME STEP   87, STRESS PERIOD    3
1
  VOLUMETRIC BUDGET FOR ENTIRE MODEL AT END OF TIME STEP   87, STRESS PERIOD   3
  ------------------------------------------------------------------------------

     CUMULATIVE VOLUMES      L**3       RATES FOR THIS TIME STEP      L**3/T
     ------------------                 ------------------------

           IN:                                      IN:
           ---                                      ---
             STORAGE =      154403.4375               STORAGE =         954.5844
       CONSTANT HEAD =       69797.2656         CONSTANT HEAD =           0.0000
               WELLS =       72800.0000                 WELLS =         600.0000
       RIVER LEAKAGE =      211534.9844         RIVER LEAKAGE =           0.0000

            TOTAL IN =      508535.6875              TOTAL IN =        1554.5845

          OUT:                                     OUT:
          ----                                     ----
             STORAGE =      247768.9688               STORAGE =           0.0000
       CONSTANT HEAD =       40249.6094         CONSTANT HEAD =         885.6595
               WELLS =       64300.0000                 WELLS =         100.0000
       RIVER LEAKAGE =      156217.0938         RIVER LEAKAGE =         568.9244

           TOTAL OUT =      508535.6562             TOTAL OUT =        1554.5840

            IN - OUT =       3.1250E-02              IN - OUT =       4.8828E-04

 PERCENT DISCREPANCY =           0.00     PERCENT DISCREPANCY =           0.00






         TIME SUMMARY AT END OF TIME STEP   87 IN STRESS PERIOD    3
                    SECONDS     MINUTES      HOURS       DAYS        YEARS
                    -----------------------------------------------------------
   TIME STEP LENGTH  86400.      1440.0      24.000      1.0000     2.73785E-03
 STRESS PERIOD TIME 7.51680E+06 1.25280E+05  2088.0      87.000     0.23819    
         TOTAL TIME 1.62432E+07 2.70720E+05  4512.0      188.00     0.51472    
1
 
 SOLVING FOR HEAD 

 OUTPUT CONTROL FOR STRESS PERIOD    3   TIME STEP   88
    SAVE HEAD FOR ALL LAYERS
    SAVE DRAWDOWN FOR ALL LAYERS
    SAVE BUDGET
    PRINT HEAD FOR ALL LAYERS
    PRINT BUDGET
 UBDSV1 SAVING "         STORAGE" ON UNIT   1 AT TIME STEP 88, STRESS PERIOD   3
 UBDSV2 SAVING "   CONSTANT HEAD" ON UNIT   1 AT TIME STEP 88, STRESS PERIOD   3
 UBDSV1 SAVING "FLOW RIGHT FACE " ON UNIT   1 AT TIME STEP 88, STRESS PERIOD   3
 UBDSV1 SAVING "FLOW FRONT FACE " ON UNIT   1 AT TIME STEP 88, STRESS PERIOD   3
1
              HEAD IN LAYER   1 AT END OF TIME STEP  88 IN STRESS PERIOD    3
  ---------------------------------------------------------------------------

            1           2           3           4           5           6           7           8           9          10
           11          12          13          14          15
 ........................................................................................................................
   1    1.600       1.600       1.600       1.600       1.600       1.600       1.600       1.600       1.600       1.600    
        1.600       1.600       1.600       1.600       1.600    
   2    2.196       2.178       2.146       2.124       2.165       2.213       2.242       2.236       2.191       2.191    
        2.201       2.208       2.202       2.191       2.184    
   3    2.597       2.556       2.472       2.370       2.509       2.629       2.699       2.716       2.681       2.696    
        2.728       2.749       2.732       2.702       2.682    
   4    2.859       2.798       2.633       2.192       2.690       2.909       3.023       3.074       3.071       3.117    
        3.196       3.259       3.205       3.134       3.092    
   5    3.031       2.993       2.915       2.827       2.987       3.136       3.246       3.322       3.355       3.448    
        3.621       3.825       3.637       3.479       3.400    
   6    3.115       3.101       3.080       3.080       3.162       3.265       3.364       3.453       3.513       3.648    
        3.963       4.725       3.984       3.692       3.580    
   7    3.112       3.111       3.117       3.142       3.204       3.286       3.374       3.463       3.522       3.626    
        3.808       4.018       3.835       3.680       3.604    
   8    3.025       3.031       3.047       3.080       3.134       3.205       3.286       3.369       3.421       3.490    
        3.587       3.663       3.618       3.553       3.513    
   9    2.866       2.875       2.893       2.926       2.974       3.037       3.112       3.194       3.246       3.296    
        3.354       3.394       3.390       3.367       3.351    
  10    2.648       2.656       2.673       2.701       2.741       2.795       2.865       2.954       3.022       3.068    
        3.112       3.143       3.152       3.149       3.144    
  11    2.386       2.392       2.404       2.424       2.453       2.494       2.552       2.644       2.765       2.820    
        2.863       2.891       2.905       2.909       2.910    
  12    2.214       2.218       2.226       2.239       2.259       2.286       2.325       2.382       2.499       2.569    
        2.610       2.635       2.649       2.656       2.658    
  13    2.150       2.153       2.159       2.169       2.183       2.202       2.228       2.259       2.298       2.336    
        2.362       2.378       2.388       2.394       2.396    
  14    2.081       2.083       2.087       2.092       2.100       2.110       2.123       2.135       2.141       2.154    
        2.164       2.172       2.177       2.180       2.181    
  15    2.010       2.011       2.011       2.012       2.013       2.015       2.015       2.016       2.016       2.017    
        2.017       2.018       2.018       2.018       2.018    
  16    2.039       2.041       2.045       2.050       2.056       2.059       2.056       2.050       2.044       2.039    
        2.035       2.032       2.030       2.029       2.028    
  17    2.065       2.069       2.077       2.088       2.100       2.108       2.099       2.085       2.071       2.060    
        2.052       2.046       2.042       2.039       2.038    
  18    2.087       2.093       2.105       2.124       2.149       2.175       2.147       2.118       2.096       2.079    
        2.066       2.057       2.051       2.047       2.045    
  19    2.103       2.110       2.126       2.152       2.198       2.295       2.195       2.145       2.114       2.092    
        2.076       2.065       2.058       2.053       2.051    
  20    2.111       2.119       2.136       2.162       2.196       2.228       2.192       2.153       2.122       2.099    
        2.082       2.070       2.061       2.056       2.054    

 HEAD WILL BE SAVED ON UNIT   51 AT END OF TIME STEP   88, STRESS PERIOD    3

 DRAWDOWN WILL BE SAVED ON UNIT   52 AT END OF TIME STEP   88, STRESS PERIOD    3
1
  VOLUMETRIC BUDGET FOR ENTIRE MODEL AT END OF TIME STEP   88, STRESS PERIOD   3
  ------------------------------------------------------------------------------

     CUMULATIVE VOLUMES      L**3       RATES FOR THIS TIME STEP      L**3/T
     ------------------                 ------------------------

           IN:                                      IN:
           ---                                      ---
             STORAGE =      155359.8594               STORAGE =         956.4241
       CONSTANT HEAD =       69797.2656         CONSTANT HEAD =           0.0000
               WELLS =       73400.0000                 WELLS =         600.0000
       RIVER LEAKAGE =      211534.9844         RIVER LEAKAGE =           0.0000

            TOTAL IN =      510092.1250              TOTAL IN =        1556.4241

          OUT:                                     OUT:
          ----                                     ----
             STORAGE =      247768.9688               STORAGE =           0.0000
       CONSTANT HEAD =       41142.4219         CONSTANT HEAD =         892.8140
               WELLS =       64400.0000                 WELLS =         100.0000
       RIVER LEAKAGE =      156780.7031         RIVER LEAKAGE =         563.6109

           TOTAL OUT =      510092.0625             TOTAL OUT =        1556.4248

            IN - OUT =       6.2500E-02              IN - OUT =      -7.3242E-04

 PERCENT DISCREPANCY =           0.00     PERCENT DISCREPANCY =          -0.00






         TIME SUMMARY AT END OF TIME STEP   88 IN STRESS PERIOD    3
                    SECONDS     MINUTES      HOURS       DAYS        YEARS
                    -----------------------------------------------------------
   TIME STEP LENGTH  86400.      1440.0      24.000      1.0000     2.73785E-03
 STRESS PERIOD TIME 7.60320E+06 1.26720E+05  2112.0      88.000     0.24093    
         TOTAL TIME 1.63296E+07 2.72160E+05  4536.0      189.00     0.51745    
1
 
 SOLVING FOR HEAD 

 OUTPUT CONTROL FOR STRESS PERIOD    3   TIME STEP   89
    SAVE HEAD FOR ALL LAYERS
    SAVE DRAWDOWN FOR ALL LAYERS
    SAVE BUDGET
    PRINT HEAD FOR ALL LAYERS
    PRINT BUDGET
 UBDSV1 SAVING "         STORAGE" ON UNIT   1 AT TIME STEP 89, STRESS PERIOD   3
 UBDSV2 SAVING "   CONSTANT HEAD" ON UNIT   1 AT TIME STEP 89, STRESS PERIOD   3
 UBDSV1 SAVING "FLOW RIGHT FACE " ON UNIT   1 AT TIME STEP 89, STRESS PERIOD   3
 UBDSV1 SAVING "FLOW FRONT FACE " ON UNIT   1 AT TIME STEP 89, STRESS PERIOD   3
1
              HEAD IN LAYER   1 AT END OF TIME STEP  89 IN STRESS PERIOD    3
  ---------------------------------------------------------------------------

            1           2           3           4           5           6           7           8           9          10
           11          12          13          14          15
 ........................................................................................................................
   1    1.550       1.550       1.550       1.550       1.550       1.550       1.550       1.550       1.550       1.550    
        1.550       1.550       1.550       1.550       1.550    
   2    2.152       2.134       2.103       2.080       2.121       2.169       2.197       2.192       2.146       2.146    
        2.156       2.163       2.157       2.146       2.138    
   3    2.559       2.518       2.434       2.332       2.471       2.591       2.660       2.676       2.641       2.656    
        2.687       2.709       2.691       2.661       2.641    
   4    2.827       2.766       2.601       2.160       2.657       2.876       2.988       3.039       3.035       3.082    
        3.161       3.224       3.170       3.098       3.056    
   5    3.004       2.966       2.888       2.800       2.959       3.107       3.216       3.291       3.324       3.417    
        3.590       3.794       3.605       3.447       3.369    
   6    3.093       3.079       3.057       3.057       3.138       3.241       3.339       3.427       3.486       3.621    
        3.936       4.698       3.957       3.664       3.552    
   7    3.094       3.093       3.098       3.123       3.184       3.266       3.353       3.441       3.499       3.603    
        3.785       3.995       3.811       3.656       3.579    
   8    3.011       3.017       3.033       3.065       3.118       3.188       3.268       3.351       3.402       3.471    
        3.567       3.643       3.598       3.532       3.493    
   9    2.856       2.864       2.882       2.914       2.962       3.024       3.098       3.179       3.231       3.280    
        3.338       3.378       3.373       3.350       3.334    
  10    2.641       2.649       2.665       2.693       2.733       2.786       2.855       2.942       3.010       3.055    
        3.099       3.130       3.139       3.135       3.130    
  11    2.382       2.388       2.400       2.420       2.448       2.488       2.546       2.636       2.756       2.811    
        2.853       2.881       2.894       2.899       2.899    
  12    2.211       2.215       2.224       2.237       2.256       2.283       2.322       2.378       2.493       2.563    
        2.603       2.628       2.642       2.648       2.651    
  13    2.148       2.151       2.157       2.167       2.181       2.200       2.225       2.256       2.295       2.332    
        2.358       2.374       2.384       2.389       2.391    
  14    2.081       2.082       2.086       2.091       2.099       2.109       2.121       2.134       2.140       2.152    
        2.163       2.170       2.175       2.178       2.179    
  15    2.010       2.011       2.011       2.012       2.013       2.014       2.015       2.016       2.016       2.016    
        2.017       2.017       2.018       2.018       2.018    
  16    2.039       2.041       2.045       2.050       2.056       2.059       2.056       2.050       2.044       2.039    
        2.035       2.032       2.030       2.029       2.028    
  17    2.065       2.069       2.076       2.088       2.100       2.108       2.099       2.084       2.071       2.060    
        2.052       2.045       2.041       2.039       2.037    
  18    2.087       2.093       2.105       2.123       2.149       2.175       2.147       2.118       2.095       2.078    
        2.066       2.057       2.051       2.047       2.045    
  19    2.103       2.110       2.126       2.152       2.198       2.294       2.194       2.145       2.113       2.092    
        2.076       2.065       2.057       2.053       2.050    
  20    2.111       2.119       2.135       2.161       2.196       2.227       2.192       2.153       2.122       2.098    
        2.081       2.069       2.061       2.056       2.053    

 HEAD WILL BE SAVED ON UNIT   51 AT END OF TIME STEP   89, STRESS PERIOD    3

 DRAWDOWN WILL BE SAVED ON UNIT   52 AT END OF TIME STEP   89, STRESS PERIOD    3
1
  VOLUMETRIC BUDGET FOR ENTIRE MODEL AT END OF TIME STEP   89, STRESS PERIOD   3
  ------------------------------------------------------------------------------

     CUMULATIVE VOLUMES      L**3       RATES FOR THIS TIME STEP      L**3/T
     ------------------                 ------------------------

           IN:                                      IN:
           ---                                      ---
             STORAGE =      156318.0938               STORAGE =         958.2323
       CONSTANT HEAD =       69797.2656         CONSTANT HEAD =           0.0000
               WELLS =       74000.0000                 WELLS =         600.0000
       RIVER LEAKAGE =      211534.9844         RIVER LEAKAGE =           0.0000

            TOTAL IN =      511650.3750              TOTAL IN =        1558.2323

          OUT:                                     OUT:
          ----                                     ----
             STORAGE =      247768.9688               STORAGE =           0.0000
       CONSTANT HEAD =       42042.3438         CONSTANT HEAD =         899.9232
               WELLS =       64500.0000                 WELLS =         100.0000
       RIVER LEAKAGE =      157339.0156         RIVER LEAKAGE =         558.3099

           TOTAL OUT =      511650.3125             TOTAL OUT =        1558.2332

            IN - OUT =       6.2500E-02              IN - OUT =      -8.5449E-04

 PERCENT DISCREPANCY =           0.00     PERCENT DISCREPANCY =          -0.00






         TIME SUMMARY AT END OF TIME STEP   89 IN STRESS PERIOD    3
                    SECONDS     MINUTES      HOURS       DAYS        YEARS
                    -----------------------------------------------------------
   TIME STEP LENGTH  86400.      1440.0      24.000      1.0000     2.73785E-03
 STRESS PERIOD TIME 7.68960E+06 1.28160E+05  2136.0      89.000     0.24367    
         TOTAL TIME 1.64160E+07 2.73600E+05  4560.0      190.00     0.52019    
1
 
 SOLVING FOR HEAD 

 OUTPUT CONTROL FOR STRESS PERIOD    3   TIME STEP   90
    SAVE HEAD FOR ALL LAYERS
    SAVE DRAWDOWN FOR ALL LAYERS
    SAVE BUDGET
    PRINT HEAD FOR ALL LAYERS
    PRINT BUDGET
 UBDSV1 SAVING "         STORAGE" ON UNIT   1 AT TIME STEP 90, STRESS PERIOD   3
 UBDSV2 SAVING "   CONSTANT HEAD" ON UNIT   1 AT TIME STEP 90, STRESS PERIOD   3
 UBDSV1 SAVING "FLOW RIGHT FACE " ON UNIT   1 AT TIME STEP 90, STRESS PERIOD   3
 UBDSV1 SAVING "FLOW FRONT FACE " ON UNIT   1 AT TIME STEP 90, STRESS PERIOD   3
1
              HEAD IN LAYER   1 AT END OF TIME STEP  90 IN STRESS PERIOD    3
  ---------------------------------------------------------------------------

            1           2           3           4           5           6           7           8           9          10
           11          12          13          14          15
 ........................................................................................................................
   1    1.500       1.500       1.500       1.500       1.500       1.500       1.500       1.500       1.500       1.500    
        1.500       1.500       1.500       1.500       1.500    
   2    2.109       2.091       2.059       2.036       2.077       2.125       2.153       2.147       2.101       2.101    
        2.111       2.117       2.112       2.101       2.093    
   3    2.522       2.481       2.396       2.294       2.433       2.552       2.621       2.637       2.601       2.616    
        2.647       2.668       2.651       2.621       2.601    
   4    2.795       2.734       2.569       2.127       2.623       2.842       2.954       3.004       3.000       3.046    
        3.125       3.188       3.134       3.062       3.020    
   5    2.977       2.939       2.861       2.772       2.931       3.078       3.187       3.261       3.293       3.386    
        3.559       3.763       3.573       3.415       3.337    
   6    3.071       3.056       3.034       3.034       3.114       3.217       3.314       3.401       3.459       3.594    
        3.909       4.671       3.929       3.636       3.524    
   7    3.076       3.075       3.080       3.104       3.165       3.245       3.332       3.419       3.476       3.580    
        3.761       3.971       3.787       3.632       3.555    
   8    2.997       3.003       3.018       3.050       3.103       3.172       3.251       3.332       3.383       3.451    
        3.547       3.622       3.577       3.512       3.472    
   9    2.845       2.853       2.871       2.903       2.950       3.011       3.084       3.165       3.215       3.264    
        3.321       3.361       3.356       3.333       3.316    
  10    2.633       2.641       2.658       2.685       2.724       2.777       2.845       2.931       2.997       3.042    
        3.086       3.116       3.125       3.121       3.116    
  11    2.378       2.384       2.396       2.415       2.443       2.483       2.540       2.629       2.748       2.801    
        2.843       2.870       2.884       2.888       2.888    
  12    2.209       2.213       2.221       2.234       2.253       2.280       2.318       2.373       2.488       2.556    
        2.597       2.621       2.635       2.641       2.643    
  13    2.147       2.150       2.156       2.165       2.179       2.198       2.223       2.253       2.292       2.329    
        2.354       2.370       2.380       2.385       2.387    
  14    2.080       2.081       2.085       2.090       2.098       2.108       2.120       2.132       2.138       2.150    
        2.161       2.168       2.173       2.176       2.177    
  15    2.010       2.011       2.011       2.012       2.013       2.014       2.015       2.016       2.016       2.016    
        2.017       2.017       2.017       2.018       2.018    
  16    2.039       2.041       2.045       2.050       2.055       2.058       2.056       2.050       2.044       2.039    
        2.035       2.032       2.030       2.028       2.028    
  17    2.065       2.068       2.076       2.087       2.100       2.108       2.099       2.084       2.071       2.060    
        2.051       2.045       2.041       2.038       2.037    
  18    2.087       2.092       2.104       2.123       2.149       2.174       2.146       2.117       2.095       2.078    
        2.065       2.056       2.050       2.046       2.045    
  19    2.102       2.110       2.125       2.152       2.198       2.294       2.194       2.144       2.113       2.091    
        2.076       2.065       2.057       2.052       2.050    
  20    2.111       2.119       2.135       2.161       2.195       2.227       2.191       2.152       2.121       2.098    
        2.081       2.069       2.061       2.055       2.053    

 HEAD WILL BE SAVED ON UNIT   51 AT END OF TIME STEP   90, STRESS PERIOD    3

 DRAWDOWN WILL BE SAVED ON UNIT   52 AT END OF TIME STEP   90, STRESS PERIOD    3
1
  VOLUMETRIC BUDGET FOR ENTIRE MODEL AT END OF TIME STEP   90, STRESS PERIOD   3
  ------------------------------------------------------------------------------

     CUMULATIVE VOLUMES      L**3       RATES FOR THIS TIME STEP      L**3/T
     ------------------                 ------------------------

           IN:                                      IN:
           ---                                      ---
             STORAGE =      157278.1094               STORAGE =         960.0081
       CONSTANT HEAD =       69797.2656         CONSTANT HEAD =           0.0000
               WELLS =       74600.0000                 WELLS =         600.0000
       RIVER LEAKAGE =      211534.9844         RIVER LEAKAGE =           0.0000

            TOTAL IN =      513210.3750              TOTAL IN =        1560.0081

          OUT:                                     OUT:
          ----                                     ----
             STORAGE =      247768.9688               STORAGE =           0.0000
       CONSTANT HEAD =       42949.3320         CONSTANT HEAD =         906.9892
               WELLS =       64600.0000                 WELLS =         100.0000
       RIVER LEAKAGE =      157892.0312         RIVER LEAKAGE =         553.0201

           TOTAL OUT =      513210.3438             TOTAL OUT =        1560.0093

            IN - OUT =       3.1250E-02              IN - OUT =      -1.2207E-03

 PERCENT DISCREPANCY =           0.00     PERCENT DISCREPANCY =          -0.00






         TIME SUMMARY AT END OF TIME STEP   90 IN STRESS PERIOD    3
                    SECONDS     MINUTES      HOURS       DAYS        YEARS
                    -----------------------------------------------------------
   TIME STEP LENGTH  86400.      1440.0      24.000      1.0000     2.73785E-03
 STRESS PERIOD TIME 7.77600E+06 1.29600E+05  2160.0      90.000     0.24641    
         TOTAL TIME 1.65024E+07 2.75040E+05  4584.0      191.00     0.52293    
1
 
 SOLVING FOR HEAD 

 OUTPUT CONTROL FOR STRESS PERIOD    3   TIME STEP   91
    SAVE HEAD FOR ALL LAYERS
    SAVE DRAWDOWN FOR ALL LAYERS
    SAVE BUDGET
    PRINT HEAD FOR ALL LAYERS
    PRINT BUDGET
 UBDSV1 SAVING "         STORAGE" ON UNIT   1 AT TIME STEP 91, STRESS PERIOD   3
 UBDSV2 SAVING "   CONSTANT HEAD" ON UNIT   1 AT TIME STEP 91, STRESS PERIOD   3
 UBDSV1 SAVING "FLOW RIGHT FACE " ON UNIT   1 AT TIME STEP 91, STRESS PERIOD   3
 UBDSV1 SAVING "FLOW FRONT FACE " ON UNIT   1 AT TIME STEP 91, STRESS PERIOD   3
1
              HEAD IN LAYER   1 AT END OF TIME STEP  91 IN STRESS PERIOD    3
  ---------------------------------------------------------------------------

            1           2           3           4           5           6           7           8           9          10
           11          12          13          14          15
 ........................................................................................................................
   1    1.450       1.450       1.450       1.450       1.450       1.450       1.450       1.450       1.450       1.450    
        1.450       1.450       1.450       1.450       1.450    
   2    2.065       2.047       2.015       1.992       2.033       2.081       2.109       2.102       2.056       2.056    
        2.066       2.072       2.067       2.056       2.048    
   3    2.484       2.443       2.358       2.256       2.394       2.513       2.582       2.597       2.561       2.576    
        2.607       2.628       2.610       2.580       2.560    
   4    2.763       2.702       2.536       2.093       2.590       2.809       2.920       2.969       2.964       3.011    
        3.089       3.152       3.098       3.026       2.984    
   5    2.950       2.912       2.834       2.744       2.902       3.049       3.157       3.231       3.262       3.354    
        3.527       3.731       3.542       3.383       3.305    
   6    3.049       3.034       3.012       3.011       3.091       3.192       3.288       3.375       3.432       3.567    
        3.881       4.644       3.902       3.608       3.496    
   7    3.058       3.057       3.061       3.085       3.145       3.225       3.311       3.396       3.453       3.556    
        3.738       3.947       3.763       3.608       3.531    
   8    2.983       2.988       3.003       3.035       3.087       3.155       3.233       3.314       3.363       3.431    
        3.527       3.602       3.557       3.491       3.451    
   9    2.834       2.842       2.860       2.891       2.937       2.998       3.071       3.150       3.199       3.248    
        3.305       3.344       3.339       3.316       3.299    
  10    2.626       2.634       2.650       2.677       2.716       2.768       2.835       2.920       2.985       3.030    
        3.073       3.103       3.111       3.107       3.102    
  11    2.374       2.380       2.391       2.410       2.438       2.477       2.533       2.622       2.739       2.792    
        2.833       2.860       2.873       2.877       2.878    
  12    2.207       2.211       2.219       2.232       2.250       2.277       2.315       2.369       2.482       2.550    
        2.590       2.614       2.627       2.633       2.635    
  13    2.145       2.148       2.154       2.163       2.177       2.196       2.221       2.251       2.288       2.325    
        2.350       2.366       2.375       2.380       2.382    
  14    2.079       2.081       2.084       2.089       2.097       2.107       2.119       2.131       2.137       2.149    
        2.159       2.166       2.171       2.173       2.175    
  15    2.010       2.010       2.011       2.012       2.013       2.014       2.015       2.016       2.016       2.016    
        2.017       2.017       2.017       2.017       2.017    
  16    2.038       2.040       2.044       2.050       2.055       2.058       2.055       2.050       2.044       2.038    
        2.034       2.032       2.029       2.028       2.028    
  17    2.064       2.068       2.076       2.087       2.100       2.108       2.098       2.084       2.070       2.059    
        2.051       2.045       2.041       2.038       2.037    
  18    2.086       2.092       2.104       2.123       2.149       2.174       2.146       2.117       2.095       2.078    
        2.065       2.056       2.050       2.046       2.044    
  19    2.102       2.109       2.125       2.151       2.197       2.294       2.194       2.144       2.113       2.091    
        2.075       2.064       2.057       2.052       2.050    
  20    2.110       2.118       2.135       2.160       2.195       2.227       2.191       2.152       2.121       2.098    
        2.080       2.068       2.060       2.055       2.053    

 HEAD WILL BE SAVED ON UNIT   51 AT END OF TIME STEP   91, STRESS PERIOD    3

 DRAWDOWN WILL BE SAVED ON UNIT   52 AT END OF TIME STEP   91, STRESS PERIOD    3
1
  VOLUMETRIC BUDGET FOR ENTIRE MODEL AT END OF TIME STEP   91, STRESS PERIOD   3
  ------------------------------------------------------------------------------

     CUMULATIVE VOLUMES      L**3       RATES FOR THIS TIME STEP      L**3/T
     ------------------                 ------------------------

           IN:                                      IN:
           ---                                      ---
             STORAGE =      158239.8594               STORAGE =         961.7501
       CONSTANT HEAD =       69797.2656         CONSTANT HEAD =           0.0000
               WELLS =       75200.0000                 WELLS =         600.0000
       RIVER LEAKAGE =      211534.9844         RIVER LEAKAGE =           0.0000

            TOTAL IN =      514772.1250              TOTAL IN =        1561.7501

          OUT:                                     OUT:
          ----                                     ----
             STORAGE =      247768.9688               STORAGE =           0.0000
       CONSTANT HEAD =       43863.3438         CONSTANT HEAD =         914.0126
               WELLS =       64700.0000                 WELLS =         100.0000
       RIVER LEAKAGE =      158439.7656         RIVER LEAKAGE =         547.7376

           TOTAL OUT =      514772.0625             TOTAL OUT =        1561.7502

            IN - OUT =       6.2500E-02              IN - OUT =      -1.2207E-04

 PERCENT DISCREPANCY =           0.00     PERCENT DISCREPANCY =          -0.00






         TIME SUMMARY AT END OF TIME STEP   91 IN STRESS PERIOD    3
                    SECONDS     MINUTES      HOURS       DAYS        YEARS
                    -----------------------------------------------------------
   TIME STEP LENGTH  86400.      1440.0      24.000      1.0000     2.73785E-03
 STRESS PERIOD TIME 7.86240E+06 1.31040E+05  2184.0      91.000     0.24914    
         TOTAL TIME 1.65888E+07 2.76480E+05  4608.0      192.00     0.52567    
1
 
 SOLVING FOR HEAD 

 OUTPUT CONTROL FOR STRESS PERIOD    3   TIME STEP   92
    SAVE HEAD FOR ALL LAYERS
    SAVE DRAWDOWN FOR ALL LAYERS
    SAVE BUDGET
    PRINT HEAD FOR ALL LAYERS
    PRINT BUDGET
 UBDSV1 SAVING "         STORAGE" ON UNIT   1 AT TIME STEP 92, STRESS PERIOD   3
 UBDSV2 SAVING "   CONSTANT HEAD" ON UNIT   1 AT TIME STEP 92, STRESS PERIOD   3
 UBDSV1 SAVING "FLOW RIGHT FACE " ON UNIT   1 AT TIME STEP 92, STRESS PERIOD   3
 UBDSV1 SAVING "FLOW FRONT FACE " ON UNIT   1 AT TIME STEP 92, STRESS PERIOD   3
1
              HEAD IN LAYER   1 AT END OF TIME STEP  92 IN STRESS PERIOD    3
  ---------------------------------------------------------------------------

            1           2           3           4           5           6           7           8           9          10
           11          12          13          14          15
 ........................................................................................................................
   1    1.400       1.400       1.400       1.400       1.400       1.400       1.400       1.400       1.400       1.400    
        1.400       1.400       1.400       1.400       1.400    
   2    2.022       2.003       1.972       1.948       1.989       2.037       2.064       2.058       2.011       2.011    
        2.021       2.027       2.022       2.011       2.003    
   3    2.447       2.406       2.320       2.217       2.356       2.474       2.543       2.557       2.521       2.535    
        2.567       2.587       2.570       2.540       2.520    
   4    2.731       2.670       2.504       2.060       2.557       2.775       2.886       2.934       2.929       2.975    
        3.053       3.116       3.062       2.990       2.947    
   5    2.924       2.885       2.806       2.716       2.874       3.020       3.127       3.200       3.231       3.323    
        3.496       3.700       3.510       3.351       3.273    
   6    3.027       3.011       2.989       2.987       3.067       3.168       3.263       3.348       3.405       3.540    
        3.854       4.617       3.874       3.580       3.468    
   7    3.040       3.038       3.043       3.066       3.125       3.204       3.289       3.374       3.430       3.533    
        3.714       3.924       3.739       3.584       3.507    
   8    2.968       2.974       2.989       3.019       3.071       3.139       3.216       3.295       3.344       3.412    
        3.507       3.582       3.537       3.471       3.431    
   9    2.823       2.831       2.849       2.879       2.925       2.985       3.057       3.135       3.183       3.231    
        3.288       3.327       3.322       3.299       3.282    
  10    2.619       2.626       2.642       2.668       2.707       2.759       2.825       2.908       2.973       3.017    
        3.060       3.089       3.097       3.094       3.088    
  11    2.370       2.375       2.387       2.406       2.433       2.472       2.527       2.614       2.730       2.782    
        2.823       2.850       2.863       2.867       2.867    
  12    2.205       2.209       2.216       2.229       2.248       2.274       2.311       2.365       2.476       2.543    
        2.583       2.607       2.620       2.626       2.628    
  13    2.144       2.146       2.152       2.162       2.175       2.194       2.218       2.248       2.285       2.321    
        2.346       2.361       2.371       2.376       2.378    
  14    2.078       2.080       2.083       2.088       2.096       2.106       2.117       2.129       2.135       2.147    
        2.157       2.164       2.169       2.171       2.173    
  15    2.010       2.010       2.011       2.012       2.013       2.014       2.015       2.015       2.015       2.016    
        2.017       2.017       2.017       2.017       2.017    
  16    2.038       2.040       2.044       2.050       2.055       2.058       2.055       2.049       2.043       2.038    
        2.034       2.031       2.029       2.028       2.027    
  17    2.064       2.068       2.076       2.087       2.099       2.107       2.098       2.084       2.070       2.059    
        2.051       2.045       2.040       2.038       2.036    
  18    2.086       2.092       2.104       2.123       2.148       2.174       2.146       2.117       2.094       2.077    
        2.065       2.056       2.050       2.046       2.044    
  19    2.102       2.109       2.125       2.151       2.197       2.293       2.193       2.144       2.112       2.090    
        2.075       2.064       2.056       2.052       2.049    
  20    2.110       2.118       2.134       2.160       2.195       2.226       2.191       2.152       2.121       2.097    
        2.080       2.068       2.060       2.055       2.052    

 HEAD WILL BE SAVED ON UNIT   51 AT END OF TIME STEP   92, STRESS PERIOD    3

 DRAWDOWN WILL BE SAVED ON UNIT   52 AT END OF TIME STEP   92, STRESS PERIOD    3
1
  VOLUMETRIC BUDGET FOR ENTIRE MODEL AT END OF TIME STEP   92, STRESS PERIOD   3
  ------------------------------------------------------------------------------

     CUMULATIVE VOLUMES      L**3       RATES FOR THIS TIME STEP      L**3/T
     ------------------                 ------------------------

           IN:                                      IN:
           ---                                      ---
             STORAGE =      159203.3125               STORAGE =         963.4575
       CONSTANT HEAD =       69797.2656         CONSTANT HEAD =           0.0000
               WELLS =       75800.0000                 WELLS =         600.0000
       RIVER LEAKAGE =      211534.9844         RIVER LEAKAGE =           0.0000

            TOTAL IN =      516335.5625              TOTAL IN =        1563.4575

          OUT:                                     OUT:
          ----                                     ----
             STORAGE =      247768.9688               STORAGE =           0.0000
       CONSTANT HEAD =       44784.3359         CONSTANT HEAD =         920.9941
               WELLS =       64800.0000                 WELLS =         100.0000
       RIVER LEAKAGE =      158982.2344         RIVER LEAKAGE =         542.4630

           TOTAL OUT =      516335.5625             TOTAL OUT =        1563.4570

            IN - OUT =           0.0000              IN - OUT =       4.8828E-04

 PERCENT DISCREPANCY =           0.00     PERCENT DISCREPANCY =           0.00






         TIME SUMMARY AT END OF TIME STEP   92 IN STRESS PERIOD    3
                    SECONDS     MINUTES      HOURS       DAYS        YEARS
                    -----------------------------------------------------------
   TIME STEP LENGTH  86400.      1440.0      24.000      1.0000     2.73785E-03
 STRESS PERIOD TIME 7.94880E+06 1.32480E+05  2208.0      92.000     0.25188    
         TOTAL TIME 1.66752E+07 2.77920E+05  4632.0      193.00     0.52841    
1
 
 SOLVING FOR HEAD 

 OUTPUT CONTROL FOR STRESS PERIOD    3   TIME STEP   93
    SAVE HEAD FOR ALL LAYERS
    SAVE DRAWDOWN FOR ALL LAYERS
    SAVE BUDGET
    PRINT HEAD FOR ALL LAYERS
    PRINT BUDGET
 UBDSV1 SAVING "         STORAGE" ON UNIT   1 AT TIME STEP 93, STRESS PERIOD   3
 UBDSV2 SAVING "   CONSTANT HEAD" ON UNIT   1 AT TIME STEP 93, STRESS PERIOD   3
 UBDSV1 SAVING "FLOW RIGHT FACE " ON UNIT   1 AT TIME STEP 93, STRESS PERIOD   3
 UBDSV1 SAVING "FLOW FRONT FACE " ON UNIT   1 AT TIME STEP 93, STRESS PERIOD   3
1
              HEAD IN LAYER   1 AT END OF TIME STEP  93 IN STRESS PERIOD    3
  ---------------------------------------------------------------------------

            1           2           3           4           5           6           7           8           9          10
           11          12          13          14          15
 ........................................................................................................................
   1    1.350       1.350       1.350       1.350       1.350       1.350       1.350       1.350       1.350       1.350    
        1.350       1.350       1.350       1.350       1.350    
   2    1.978       1.960       1.928       1.904       1.945       1.992       2.020       2.013       1.966       1.966    
        1.976       1.982       1.977       1.966       1.958    
   3    2.409       2.368       2.282       2.179       2.317       2.436       2.504       2.518       2.480       2.495    
        2.526       2.547       2.530       2.499       2.479    
   4    2.699       2.638       2.471       2.027       2.524       2.741       2.851       2.899       2.893       2.939    
        3.018       3.080       3.026       2.954       2.911    
   5    2.896       2.858       2.779       2.688       2.846       2.991       3.098       3.169       3.199       3.292    
        3.464       3.668       3.478       3.319       3.241    
   6    3.004       2.989       2.966       2.964       3.043       3.143       3.238       3.322       3.378       3.512    
        3.827       4.590       3.846       3.553       3.440    
   7    3.021       3.020       3.024       3.047       3.105       3.184       3.268       3.352       3.407       3.510    
        3.690       3.900       3.715       3.560       3.482    
   8    2.954       2.959       2.974       3.004       3.055       3.122       3.198       3.276       3.324       3.392    
        3.487       3.562       3.516       3.450       3.410    
   9    2.812       2.820       2.837       2.868       2.913       2.972       3.043       3.120       3.167       3.215    
        3.271       3.310       3.305       3.282       3.264    
  10    2.611       2.618       2.634       2.660       2.698       2.749       2.815       2.897       2.960       3.004    
        3.046       3.075       3.084       3.080       3.074    
  11    2.366       2.371       2.383       2.401       2.428       2.467       2.521       2.607       2.721       2.773    
        2.813       2.839       2.852       2.856       2.856    
  12    2.202       2.206       2.214       2.227       2.245       2.271       2.307       2.361       2.471       2.537    
        2.576       2.599       2.612       2.618       2.620    
  13    2.142       2.145       2.151       2.160       2.173       2.192       2.216       2.245       2.282       2.317    
        2.342       2.357       2.366       2.371       2.373    
  14    2.077       2.079       2.082       2.087       2.095       2.104       2.116       2.128       2.134       2.145    
        2.155       2.162       2.167       2.169       2.171    
  15    2.010       2.010       2.011       2.012       2.013       2.014       2.015       2.015       2.015       2.016    
        2.016       2.017       2.017       2.017       2.017    
  16    2.038       2.040       2.044       2.049       2.055       2.058       2.055       2.049       2.043       2.038    
        2.034       2.031       2.029       2.028       2.027    
  17    2.064       2.068       2.076       2.087       2.099       2.107       2.098       2.083       2.070       2.059    
        2.051       2.044       2.040       2.037       2.036    
  18    2.086       2.092       2.104       2.122       2.148       2.174       2.145       2.117       2.094       2.077    
        2.064       2.055       2.049       2.045       2.044    
  19    2.102       2.109       2.124       2.151       2.197       2.293       2.193       2.143       2.112       2.090    
        2.075       2.064       2.056       2.051       2.049    
  20    2.110       2.118       2.134       2.160       2.194       2.226       2.190       2.151       2.120       2.097    
        2.080       2.068       2.059       2.054       2.052    

 HEAD WILL BE SAVED ON UNIT   51 AT END OF TIME STEP   93, STRESS PERIOD    3

 DRAWDOWN WILL BE SAVED ON UNIT   52 AT END OF TIME STEP   93, STRESS PERIOD    3
1
  VOLUMETRIC BUDGET FOR ENTIRE MODEL AT END OF TIME STEP   93, STRESS PERIOD   3
  ------------------------------------------------------------------------------

     CUMULATIVE VOLUMES      L**3       RATES FOR THIS TIME STEP      L**3/T
     ------------------                 ------------------------

           IN:                                      IN:
           ---                                      ---
             STORAGE =      160168.4375               STORAGE =         965.1292
       CONSTANT HEAD =       69797.2656         CONSTANT HEAD =           0.0000
               WELLS =       76400.0000                 WELLS =         600.0000
       RIVER LEAKAGE =      211534.9844         RIVER LEAKAGE =           0.0000

            TOTAL IN =      517900.6875              TOTAL IN =        1565.1292

          OUT:                                     OUT:
          ----                                     ----
             STORAGE =      247768.9688               STORAGE =           0.0000
       CONSTANT HEAD =       45712.2734         CONSTANT HEAD =         927.9359
               WELLS =       64900.0000                 WELLS =         100.0000
       RIVER LEAKAGE =      159519.4219         RIVER LEAKAGE =         537.1937

           TOTAL OUT =      517900.6875             TOTAL OUT =        1565.1295

            IN - OUT =           0.0000              IN - OUT =      -3.6621E-04

 PERCENT DISCREPANCY =           0.00     PERCENT DISCREPANCY =          -0.00






         TIME SUMMARY AT END OF TIME STEP   93 IN STRESS PERIOD    3
                    SECONDS     MINUTES      HOURS       DAYS        YEARS
                    -----------------------------------------------------------
   TIME STEP LENGTH  86400.      1440.0      24.000      1.0000     2.73785E-03
 STRESS PERIOD TIME 8.03520E+06 1.33920E+05  2232.0      93.000     0.25462    
         TOTAL TIME 1.67616E+07 2.79360E+05  4656.0      194.00     0.53114    
1
 
 SOLVING FOR HEAD 

 OUTPUT CONTROL FOR STRESS PERIOD    3   TIME STEP   94
    SAVE HEAD FOR ALL LAYERS
    SAVE DRAWDOWN FOR ALL LAYERS
    SAVE BUDGET
    PRINT HEAD FOR ALL LAYERS
    PRINT BUDGET
 UBDSV1 SAVING "         STORAGE" ON UNIT   1 AT TIME STEP 94, STRESS PERIOD   3
 UBDSV2 SAVING "   CONSTANT HEAD" ON UNIT   1 AT TIME STEP 94, STRESS PERIOD   3
 UBDSV1 SAVING "FLOW RIGHT FACE " ON UNIT   1 AT TIME STEP 94, STRESS PERIOD   3
 UBDSV1 SAVING "FLOW FRONT FACE " ON UNIT   1 AT TIME STEP 94, STRESS PERIOD   3
1
              HEAD IN LAYER   1 AT END OF TIME STEP  94 IN STRESS PERIOD    3
  ---------------------------------------------------------------------------

            1           2           3           4           5           6           7           8           9          10
           11          12          13          14          15
 ........................................................................................................................
   1    1.300       1.300       1.300       1.300       1.300       1.300       1.300       1.300       1.300       1.300    
        1.300       1.300       1.300       1.300       1.300    
   2    1.934       1.916       1.884       1.860       1.901       1.948       1.975       1.968       1.921       1.921    
        1.931       1.937       1.931       1.920       1.913    
   3    2.371       2.330       2.244       2.141       2.279       2.397       2.464       2.478       2.440       2.455    
        2.486       2.507       2.489       2.459       2.438    
   4    2.667       2.605       2.438       1.994       2.490       2.707       2.817       2.864       2.858       2.904    
        2.982       3.044       2.990       2.918       2.875    
   5    2.869       2.830       2.751       2.660       2.817       2.962       3.068       3.139       3.168       3.260    
        3.433       3.637       3.446       3.287       3.209    
   6    2.982       2.966       2.943       2.940       3.019       3.118       3.212       3.296       3.351       3.485    
        3.799       4.562       3.819       3.525       3.412    
   7    3.003       3.002       3.005       3.028       3.086       3.163       3.246       3.329       3.384       3.486    
        3.667       3.876       3.691       3.535       3.458    
   8    2.939       2.945       2.959       2.989       3.039       3.105       3.180       3.258       3.305       3.372    
        3.467       3.541       3.495       3.429       3.389    
   9    2.801       2.809       2.826       2.856       2.901       2.959       3.029       3.105       3.151       3.199    
        3.255       3.293       3.288       3.264       3.247    
  10    2.603       2.611       2.626       2.652       2.690       2.740       2.805       2.886       2.948       2.991    
        3.033       3.062       3.070       3.066       3.060    
  11    2.361       2.367       2.378       2.396       2.423       2.461       2.515       2.600       2.712       2.763    
        2.803       2.829       2.842       2.845       2.845    
  12    2.200       2.204       2.212       2.224       2.242       2.268       2.304       2.356       2.465       2.530    
        2.569       2.592       2.605       2.611       2.613    
  13    2.141       2.143       2.149       2.158       2.171       2.189       2.213       2.242       2.278       2.313    
        2.337       2.353       2.362       2.367       2.369    
  14    2.076       2.078       2.081       2.086       2.094       2.103       2.115       2.126       2.132       2.144    
        2.154       2.161       2.165       2.167       2.168    
  15    2.010       2.010       2.011       2.012       2.013       2.014       2.015       2.015       2.015       2.016    
        2.016       2.017       2.017       2.017       2.017    
  16    2.038       2.040       2.044       2.049       2.055       2.058       2.055       2.049       2.043       2.038    
        2.034       2.031       2.029       2.027       2.027    
  17    2.064       2.068       2.075       2.087       2.099       2.107       2.098       2.083       2.070       2.059    
        2.050       2.044       2.040       2.037       2.036    
  18    2.086       2.091       2.103       2.122       2.148       2.173       2.145       2.116       2.094       2.077    
        2.064       2.055       2.049       2.045       2.043    
  19    2.101       2.109       2.124       2.151       2.196       2.293       2.193       2.143       2.112       2.090    
        2.074       2.063       2.056       2.051       2.049    
  20    2.109       2.117       2.134       2.160       2.194       2.226       2.190       2.151       2.120       2.097    
        2.079       2.067       2.059       2.054       2.051    

 HEAD WILL BE SAVED ON UNIT   51 AT END OF TIME STEP   94, STRESS PERIOD    3

 DRAWDOWN WILL BE SAVED ON UNIT   52 AT END OF TIME STEP   94, STRESS PERIOD    3
1
  VOLUMETRIC BUDGET FOR ENTIRE MODEL AT END OF TIME STEP   94, STRESS PERIOD   3
  ------------------------------------------------------------------------------

     CUMULATIVE VOLUMES      L**3       RATES FOR THIS TIME STEP      L**3/T
     ------------------                 ------------------------

           IN:                                      IN:
           ---                                      ---
             STORAGE =      161135.2031               STORAGE =         966.7664
       CONSTANT HEAD =       69797.2656         CONSTANT HEAD =           0.0000
               WELLS =       77000.0000                 WELLS =         600.0000
       RIVER LEAKAGE =      211534.9844         RIVER LEAKAGE =           0.0000

            TOTAL IN =      519467.4375              TOTAL IN =        1566.7664

          OUT:                                     OUT:
          ----                                     ----
             STORAGE =      247768.9688               STORAGE =           0.0000
       CONSTANT HEAD =       46647.1133         CONSTANT HEAD =         934.8381
               WELLS =       65000.0000                 WELLS =         100.0000
       RIVER LEAKAGE =      160051.3438         RIVER LEAKAGE =         531.9279

           TOTAL OUT =      519467.4375             TOTAL OUT =        1566.7660

            IN - OUT =           0.0000              IN - OUT =       3.6621E-04

 PERCENT DISCREPANCY =           0.00     PERCENT DISCREPANCY =           0.00






         TIME SUMMARY AT END OF TIME STEP   94 IN STRESS PERIOD    3
                    SECONDS     MINUTES      HOURS       DAYS        YEARS
                    -----------------------------------------------------------
   TIME STEP LENGTH  86400.      1440.0      24.000      1.0000     2.73785E-03
 STRESS PERIOD TIME 8.12160E+06 1.35360E+05  2256.0      94.000     0.25736    
         TOTAL TIME 1.68480E+07 2.80800E+05  4680.0      195.00     0.53388    
1
 
 SOLVING FOR HEAD 

 OUTPUT CONTROL FOR STRESS PERIOD    3   TIME STEP   95
    SAVE HEAD FOR ALL LAYERS
    SAVE DRAWDOWN FOR ALL LAYERS
    SAVE BUDGET
    PRINT HEAD FOR ALL LAYERS
    PRINT BUDGET
 UBDSV1 SAVING "         STORAGE" ON UNIT   1 AT TIME STEP 95, STRESS PERIOD   3
 UBDSV2 SAVING "   CONSTANT HEAD" ON UNIT   1 AT TIME STEP 95, STRESS PERIOD   3
 UBDSV1 SAVING "FLOW RIGHT FACE " ON UNIT   1 AT TIME STEP 95, STRESS PERIOD   3
 UBDSV1 SAVING "FLOW FRONT FACE " ON UNIT   1 AT TIME STEP 95, STRESS PERIOD   3
1
              HEAD IN LAYER   1 AT END OF TIME STEP  95 IN STRESS PERIOD    3
  ---------------------------------------------------------------------------

            1           2           3           4           5           6           7           8           9          10
           11          12          13          14          15
 ........................................................................................................................
   1    1.250       1.250       1.250       1.250       1.250       1.250       1.250       1.250       1.250       1.250    
        1.250       1.250       1.250       1.250       1.250    
   2    1.891       1.872       1.840       1.816       1.857       1.904       1.931       1.923       1.876       1.876    
        1.886       1.892       1.886       1.875       1.867    
   3    2.333       2.292       2.206       2.102       2.240       2.358       2.425       2.438       2.400       2.415    
        2.446       2.466       2.449       2.418       2.398    
   4    2.634       2.573       2.406       1.960       2.457       2.673       2.783       2.829       2.822       2.868    
        2.946       3.008       2.954       2.882       2.839    
   5    2.842       2.803       2.723       2.632       2.788       2.933       3.038       3.108       3.137       3.229    
        3.401       3.605       3.415       3.255       3.177    
   6    2.959       2.943       2.920       2.917       2.995       3.093       3.187       3.269       3.324       3.458    
        3.772       4.535       3.791       3.497       3.384    
   7    2.985       2.983       2.986       3.008       3.066       3.142       3.225       3.306       3.360       3.462    
        3.643       3.852       3.667       3.511       3.434    
   8    2.925       2.930       2.944       2.973       3.023       3.088       3.163       3.239       3.285       3.352    
        3.446       3.521       3.475       3.408       3.368    
   9    2.790       2.798       2.815       2.844       2.888       2.946       3.015       3.089       3.135       3.182    
        3.238       3.276       3.270       3.247       3.230    
  10    2.596       2.603       2.618       2.644       2.681       2.731       2.795       2.874       2.935       2.978    
        3.020       3.048       3.056       3.052       3.046    
  11    2.357       2.362       2.374       2.392       2.418       2.456       2.509       2.592       2.703       2.753    
        2.792       2.818       2.831       2.835       2.835    
  12    2.198       2.202       2.209       2.221       2.239       2.265       2.300       2.352       2.459       2.524    
        2.562       2.585       2.597       2.603       2.605    
  13    2.139       2.142       2.147       2.156       2.169       2.187       2.211       2.239       2.275       2.310    
        2.333       2.349       2.358       2.362       2.364    
  14    2.076       2.077       2.080       2.086       2.093       2.102       2.113       2.125       2.131       2.142    
        2.152       2.159       2.163       2.165       2.166    
  15    2.010       2.010       2.011       2.012       2.013       2.014       2.014       2.015       2.015       2.015    
        2.016       2.016       2.017       2.017       2.017    
  16    2.038       2.040       2.044       2.049       2.055       2.057       2.055       2.049       2.043       2.038    
        2.034       2.031       2.029       2.027       2.027    
  17    2.064       2.067       2.075       2.086       2.099       2.107       2.097       2.083       2.069       2.058    
        2.050       2.044       2.040       2.037       2.036    
  18    2.085       2.091       2.103       2.122       2.148       2.173       2.145       2.116       2.093       2.076    
        2.064       2.055       2.049       2.045       2.043    
  19    2.101       2.108       2.124       2.150       2.196       2.293       2.193       2.143       2.111       2.090    
        2.074       2.063       2.055       2.051       2.048    
  20    2.109       2.117       2.134       2.159       2.194       2.225       2.190       2.151       2.120       2.096    
        2.079       2.067       2.059       2.054       2.051    

 HEAD WILL BE SAVED ON UNIT   51 AT END OF TIME STEP   95, STRESS PERIOD    3

 DRAWDOWN WILL BE SAVED ON UNIT   52 AT END OF TIME STEP   95, STRESS PERIOD    3
1
  VOLUMETRIC BUDGET FOR ENTIRE MODEL AT END OF TIME STEP   95, STRESS PERIOD   3
  ------------------------------------------------------------------------------

     CUMULATIVE VOLUMES      L**3       RATES FOR THIS TIME STEP      L**3/T
     ------------------                 ------------------------

           IN:                                      IN:
           ---                                      ---
             STORAGE =      162103.5781               STORAGE =         968.3681
       CONSTANT HEAD =       69797.2656         CONSTANT HEAD =           0.0000
               WELLS =       77600.0000                 WELLS =         600.0000
       RIVER LEAKAGE =      211534.9844         RIVER LEAKAGE =           0.0000

            TOTAL IN =      521035.8125              TOTAL IN =        1568.3682

          OUT:                                     OUT:
          ----                                     ----
             STORAGE =      247768.9688               STORAGE =           0.0000
       CONSTANT HEAD =       47588.8164         CONSTANT HEAD =         941.7033
               WELLS =       65100.0000                 WELLS =         100.0000
       RIVER LEAKAGE =      160578.0156         RIVER LEAKAGE =         526.6656

           TOTAL OUT =      521035.8125             TOTAL OUT =        1568.3689

            IN - OUT =           0.0000              IN - OUT =      -7.3242E-04

 PERCENT DISCREPANCY =           0.00     PERCENT DISCREPANCY =          -0.00






         TIME SUMMARY AT END OF TIME STEP   95 IN STRESS PERIOD    3
                    SECONDS     MINUTES      HOURS       DAYS        YEARS
                    -----------------------------------------------------------
   TIME STEP LENGTH  86400.      1440.0      24.000      1.0000     2.73785E-03
 STRESS PERIOD TIME 8.20800E+06 1.36800E+05  2280.0      95.000     0.26010    
         TOTAL TIME 1.69344E+07 2.82240E+05  4704.0      196.00     0.53662    
1
 
 SOLVING FOR HEAD 

 OUTPUT CONTROL FOR STRESS PERIOD    3   TIME STEP   96
    SAVE HEAD FOR ALL LAYERS
    SAVE DRAWDOWN FOR ALL LAYERS
    SAVE BUDGET
    PRINT HEAD FOR ALL LAYERS
    PRINT BUDGET
 UBDSV1 SAVING "         STORAGE" ON UNIT   1 AT TIME STEP 96, STRESS PERIOD   3
 UBDSV2 SAVING "   CONSTANT HEAD" ON UNIT   1 AT TIME STEP 96, STRESS PERIOD   3
 UBDSV1 SAVING "FLOW RIGHT FACE " ON UNIT   1 AT TIME STEP 96, STRESS PERIOD   3
 UBDSV1 SAVING "FLOW FRONT FACE " ON UNIT   1 AT TIME STEP 96, STRESS PERIOD   3
1
              HEAD IN LAYER   1 AT END OF TIME STEP  96 IN STRESS PERIOD    3
  ---------------------------------------------------------------------------

            1           2           3           4           5           6           7           8           9          10
           11          12          13          14          15
 ........................................................................................................................
   1    1.200       1.200       1.200       1.200       1.200       1.200       1.200       1.200       1.200       1.200    
        1.200       1.200       1.200       1.200       1.200    
   2    1.847       1.829       1.796       1.772       1.813       1.859       1.886       1.879       1.831       1.831    
        1.841       1.847       1.841       1.830       1.822    
   3    2.296       2.254       2.168       2.064       2.201       2.319       2.386       2.398       2.360       2.374    
        2.405       2.426       2.408       2.378       2.357    
   4    2.602       2.540       2.373       1.927       2.423       2.639       2.748       2.794       2.787       2.832    
        2.910       2.972       2.917       2.845       2.802    
   5    2.815       2.775       2.696       2.604       2.760       2.904       3.008       3.077       3.106       3.197    
        3.370       3.573       3.383       3.223       3.144    
   6    2.936       2.920       2.897       2.893       2.970       3.069       3.161       3.243       3.296       3.430    
        3.744       4.508       3.763       3.468       3.356    
   7    2.966       2.964       2.967       2.989       3.046       3.122       3.203       3.284       3.337       3.439    
        3.619       3.828       3.643       3.487       3.409    
   8    2.910       2.915       2.929       2.957       3.007       3.072       3.145       3.220       3.265       3.332    
        3.426       3.500       3.454       3.388       3.347    
   9    2.779       2.787       2.803       2.832       2.876       2.933       3.001       3.074       3.119       3.166    
        3.221       3.259       3.253       3.230       3.212    
  10    2.588       2.595       2.610       2.636       2.672       2.721       2.784       2.863       2.923       2.965    
        3.006       3.035       3.042       3.038       3.032    
  11    2.353       2.358       2.369       2.387       2.413       2.450       2.502       2.585       2.694       2.744    
        2.782       2.808       2.820       2.824       2.824    
  12    2.196       2.199       2.207       2.219       2.237       2.261       2.297       2.348       2.454       2.517    
        2.555       2.577       2.590       2.595       2.597    
  13    2.137       2.140       2.146       2.155       2.167       2.185       2.208       2.236       2.272       2.306    
        2.329       2.344       2.353       2.358       2.360    
  14    2.075       2.076       2.080       2.085       2.092       2.101       2.112       2.123       2.129       2.140    
        2.150       2.157       2.161       2.163       2.164    
  15    2.010       2.010       2.011       2.012       2.013       2.014       2.014       2.015       2.015       2.015    
        2.016       2.016       2.016       2.016       2.016    
  16    2.038       2.040       2.044       2.049       2.054       2.057       2.054       2.049       2.043       2.037    
        2.033       2.030       2.028       2.027       2.026    
  17    2.063       2.067       2.075       2.086       2.099       2.107       2.097       2.083       2.069       2.058    
        2.050       2.044       2.039       2.037       2.035    
  18    2.085       2.091       2.103       2.122       2.147       2.173       2.145       2.116       2.093       2.076    
        2.064       2.055       2.048       2.045       2.043    
  19    2.101       2.108       2.124       2.150       2.196       2.292       2.192       2.143       2.111       2.089    
        2.074       2.063       2.055       2.050       2.048    
  20    2.109       2.117       2.133       2.159       2.193       2.225       2.189       2.151       2.119       2.096    
        2.079       2.067       2.058       2.053       2.051    

 HEAD WILL BE SAVED ON UNIT   51 AT END OF TIME STEP   96, STRESS PERIOD    3

 DRAWDOWN WILL BE SAVED ON UNIT   52 AT END OF TIME STEP   96, STRESS PERIOD    3
1
  VOLUMETRIC BUDGET FOR ENTIRE MODEL AT END OF TIME STEP   96, STRESS PERIOD   3
  ------------------------------------------------------------------------------

     CUMULATIVE VOLUMES      L**3       RATES FOR THIS TIME STEP      L**3/T
     ------------------                 ------------------------

           IN:                                      IN:
           ---                                      ---
             STORAGE =      163073.5156               STORAGE =         969.9349
       CONSTANT HEAD =       69797.2656         CONSTANT HEAD =           0.0000
               WELLS =       78200.0000                 WELLS =         600.0000
       RIVER LEAKAGE =      211534.9844         RIVER LEAKAGE =           0.0000

            TOTAL IN =      522605.7500              TOTAL IN =        1569.9348

          OUT:                                     OUT:
          ----                                     ----
             STORAGE =      247768.9688               STORAGE =           0.0000
       CONSTANT HEAD =       48537.3477         CONSTANT HEAD =         948.5312
               WELLS =       65200.0000                 WELLS =         100.0000
       RIVER LEAKAGE =      161099.4219         RIVER LEAKAGE =         521.4028

           TOTAL OUT =      522605.7500             TOTAL OUT =        1569.9341

            IN - OUT =           0.0000              IN - OUT =       7.3242E-04

 PERCENT DISCREPANCY =           0.00     PERCENT DISCREPANCY =           0.00






         TIME SUMMARY AT END OF TIME STEP   96 IN STRESS PERIOD    3
                    SECONDS     MINUTES      HOURS       DAYS        YEARS
                    -----------------------------------------------------------
   TIME STEP LENGTH  86400.      1440.0      24.000      1.0000     2.73785E-03
 STRESS PERIOD TIME 8.29440E+06 1.38240E+05  2304.0      96.000     0.26283    
         TOTAL TIME 1.70208E+07 2.83680E+05  4728.0      197.00     0.53936    
1
 
 SOLVING FOR HEAD 

 OUTPUT CONTROL FOR STRESS PERIOD    3   TIME STEP   97
    SAVE HEAD FOR ALL LAYERS
    SAVE DRAWDOWN FOR ALL LAYERS
    SAVE BUDGET
    PRINT HEAD FOR ALL LAYERS
    PRINT BUDGET
 UBDSV1 SAVING "         STORAGE" ON UNIT   1 AT TIME STEP 97, STRESS PERIOD   3
 UBDSV2 SAVING "   CONSTANT HEAD" ON UNIT   1 AT TIME STEP 97, STRESS PERIOD   3
 UBDSV1 SAVING "FLOW RIGHT FACE " ON UNIT   1 AT TIME STEP 97, STRESS PERIOD   3
 UBDSV1 SAVING "FLOW FRONT FACE " ON UNIT   1 AT TIME STEP 97, STRESS PERIOD   3
1
              HEAD IN LAYER   1 AT END OF TIME STEP  97 IN STRESS PERIOD    3
  ---------------------------------------------------------------------------

            1           2           3           4           5           6           7           8           9          10
           11          12          13          14          15
 ........................................................................................................................
   1    1.150       1.150       1.150       1.150       1.150       1.150       1.150       1.150       1.150       1.150    
        1.150       1.150       1.150       1.150       1.150    
   2    1.803       1.785       1.752       1.728       1.769       1.815       1.842       1.834       1.786       1.786    
        1.796       1.802       1.796       1.785       1.777    
   3    2.258       2.216       2.130       2.025       2.163       2.280       2.346       2.358       2.320       2.334    
        2.365       2.385       2.367       2.337       2.316    
   4    2.569       2.508       2.340       1.893       2.389       2.605       2.714       2.759       2.751       2.796    
        2.874       2.936       2.881       2.809       2.766    
   5    2.787       2.748       2.668       2.575       2.731       2.875       2.978       3.047       3.074       3.166    
        3.338       3.542       3.351       3.191       3.112    
   6    2.913       2.897       2.873       2.869       2.946       3.044       3.135       3.216       3.269       3.403    
        3.717       4.480       3.735       3.440       3.327    
   7    2.947       2.945       2.948       2.969       3.025       3.101       3.182       3.261       3.314       3.415    
        3.595       3.804       3.618       3.462       3.385    
   8    2.895       2.900       2.913       2.942       2.991       3.055       3.127       3.201       3.246       3.312    
        3.406       3.480       3.434       3.367       3.326    
   9    2.768       2.775       2.792       2.820       2.863       2.920       2.987       3.059       3.103       3.150    
        3.204       3.242       3.236       3.212       3.195    
  10    2.580       2.587       2.602       2.627       2.663       2.712       2.774       2.851       2.910       2.952    
        2.993       3.021       3.028       3.024       3.018    
  11    2.348       2.354       2.365       2.382       2.408       2.444       2.496       2.577       2.685       2.734    
        2.772       2.798       2.810       2.813       2.813    
  12    2.193       2.197       2.204       2.216       2.234       2.258       2.293       2.344       2.448       2.511    
        2.548       2.570       2.582       2.588       2.590    
  13    2.136       2.138       2.144       2.153       2.165       2.183       2.206       2.233       2.268       2.302    
        2.325       2.340       2.349       2.353       2.355    
  14    2.074       2.075       2.079       2.084       2.091       2.100       2.111       2.122       2.127       2.138    
        2.148       2.155       2.159       2.161       2.162    
  15    2.010       2.010       2.011       2.011       2.012       2.014       2.014       2.015       2.015       2.015    
        2.016       2.016       2.016       2.016       2.016    
  16    2.038       2.040       2.043       2.049       2.054       2.057       2.054       2.049       2.042       2.037    
        2.033       2.030       2.028       2.027       2.026    
  17    2.063       2.067       2.075       2.086       2.098       2.106       2.097       2.083       2.069       2.058    
        2.050       2.043       2.039       2.036       2.035    
  18    2.085       2.091       2.103       2.121       2.147       2.173       2.144       2.116       2.093       2.076    
        2.063       2.054       2.048       2.044       2.042    
  19    2.101       2.108       2.123       2.150       2.196       2.292       2.192       2.142       2.111       2.089    
        2.073       2.062       2.055       2.050       2.048    
  20    2.109       2.117       2.133       2.159       2.193       2.225       2.189       2.150       2.119       2.096    
        2.079       2.066       2.058       2.053       2.051    

 HEAD WILL BE SAVED ON UNIT   51 AT END OF TIME STEP   97, STRESS PERIOD    3

 DRAWDOWN WILL BE SAVED ON UNIT   52 AT END OF TIME STEP   97, STRESS PERIOD    3
1
  VOLUMETRIC BUDGET FOR ENTIRE MODEL AT END OF TIME STEP   97, STRESS PERIOD   3
  ------------------------------------------------------------------------------

     CUMULATIVE VOLUMES      L**3       RATES FOR THIS TIME STEP      L**3/T
     ------------------                 ------------------------

           IN:                                      IN:
           ---                                      ---
             STORAGE =      164044.9844               STORAGE =         971.4662
       CONSTANT HEAD =       69797.2656         CONSTANT HEAD =           0.0000
               WELLS =       78800.0000                 WELLS =         600.0000
       RIVER LEAKAGE =      211534.9844         RIVER LEAKAGE =           0.0000

            TOTAL IN =      524177.2500              TOTAL IN =        1571.4663

          OUT:                                     OUT:
          ----                                     ----
             STORAGE =      247768.9688               STORAGE =           0.0000
       CONSTANT HEAD =       49492.6719         CONSTANT HEAD =         955.3246
               WELLS =       65300.0000                 WELLS =         100.0000
       RIVER LEAKAGE =      161615.5625         RIVER LEAKAGE =         516.1406

           TOTAL OUT =      524177.1875             TOTAL OUT =        1571.4653

            IN - OUT =       6.2500E-02              IN - OUT =       9.7656E-04

 PERCENT DISCREPANCY =           0.00     PERCENT DISCREPANCY =           0.00






         TIME SUMMARY AT END OF TIME STEP   97 IN STRESS PERIOD    3
                    SECONDS     MINUTES      HOURS       DAYS        YEARS
                    -----------------------------------------------------------
   TIME STEP LENGTH  86400.      1440.0      24.000      1.0000     2.73785E-03
 STRESS PERIOD TIME 8.38080E+06 1.39680E+05  2328.0      97.000     0.26557    
         TOTAL TIME 1.71072E+07 2.85120E+05  4752.0      198.00     0.54209    
1
 
 SOLVING FOR HEAD 

 OUTPUT CONTROL FOR STRESS PERIOD    3   TIME STEP   98
    SAVE HEAD FOR ALL LAYERS
    SAVE DRAWDOWN FOR ALL LAYERS
    SAVE BUDGET
    PRINT HEAD FOR ALL LAYERS
    PRINT BUDGET
 UBDSV1 SAVING "         STORAGE" ON UNIT   1 AT TIME STEP 98, STRESS PERIOD   3
 UBDSV2 SAVING "   CONSTANT HEAD" ON UNIT   1 AT TIME STEP 98, STRESS PERIOD   3
 UBDSV1 SAVING "FLOW RIGHT FACE " ON UNIT   1 AT TIME STEP 98, STRESS PERIOD   3
 UBDSV1 SAVING "FLOW FRONT FACE " ON UNIT   1 AT TIME STEP 98, STRESS PERIOD   3
1
              HEAD IN LAYER   1 AT END OF TIME STEP  98 IN STRESS PERIOD    3
  ---------------------------------------------------------------------------

            1           2           3           4           5           6           7           8           9          10
           11          12          13          14          15
 ........................................................................................................................
   1    1.100       1.100       1.100       1.100       1.100       1.100       1.100       1.100       1.100       1.100    
        1.100       1.100       1.100       1.100       1.100    
   2    1.759       1.741       1.709       1.684       1.724       1.771       1.797       1.789       1.741       1.741    
        1.751       1.757       1.751       1.740       1.732    
   3    2.220       2.178       2.091       1.987       2.124       2.241       2.307       2.319       2.280       2.294    
        2.324       2.345       2.327       2.296       2.276    
   4    2.537       2.475       2.307       1.860       2.356       2.571       2.679       2.724       2.715       2.760    
        2.838       2.900       2.845       2.773       2.730    
   5    2.760       2.720       2.640       2.547       2.702       2.845       2.948       3.016       3.043       3.134    
        3.306       3.510       3.319       3.159       3.080    
   6    2.890       2.874       2.850       2.845       2.922       3.019       3.109       3.189       3.242       3.375    
        3.689       4.453       3.707       3.412       3.299    
   7    2.929       2.926       2.929       2.950       3.005       3.080       3.160       3.239       3.290       3.392    
        3.571       3.780       3.594       3.438       3.360    
   8    2.880       2.885       2.898       2.926       2.974       3.038       3.109       3.182       3.226       3.292    
        3.386       3.459       3.413       3.346       3.306    
   9    2.757       2.764       2.780       2.808       2.851       2.907       2.973       3.044       3.087       3.133    
        3.188       3.225       3.219       3.195       3.177    
  10    2.573       2.580       2.594       2.619       2.655       2.702       2.764       2.840       2.898       2.939    
        2.979       3.007       3.014       3.010       3.004    
  11    2.344       2.349       2.360       2.377       2.403       2.439       2.490       2.570       2.676       2.724    
        2.762       2.787       2.799       2.802       2.802    
  12    2.191       2.195       2.202       2.214       2.231       2.255       2.289       2.339       2.442       2.504    
        2.540       2.563       2.575       2.580       2.582    
  13    2.134       2.137       2.142       2.151       2.164       2.181       2.203       2.231       2.265       2.298    
        2.321       2.336       2.344       2.349       2.350    
  14    2.073       2.075       2.078       2.083       2.090       2.099       2.109       2.121       2.126       2.137    
        2.146       2.153       2.157       2.159       2.160    
  15    2.010       2.010       2.010       2.011       2.012       2.013       2.014       2.015       2.015       2.015    
        2.015       2.016       2.016       2.016       2.016    
  16    2.037       2.039       2.043       2.049       2.054       2.057       2.054       2.048       2.042       2.037    
        2.033       2.030       2.028       2.027       2.026    
  17    2.063       2.067       2.075       2.086       2.098       2.106       2.097       2.082       2.069       2.058    
        2.049       2.043       2.039       2.036       2.035    
  18    2.085       2.091       2.102       2.121       2.147       2.172       2.144       2.115       2.093       2.076    
        2.063       2.054       2.048       2.044       2.042    
  19    2.100       2.108       2.123       2.150       2.195       2.292       2.192       2.142       2.111       2.089    
        2.073       2.062       2.054       2.050       2.047    
  20    2.109       2.116       2.133       2.159       2.193       2.225       2.189       2.150       2.119       2.095    
        2.078       2.066       2.058       2.053       2.050    

 HEAD WILL BE SAVED ON UNIT   51 AT END OF TIME STEP   98, STRESS PERIOD    3

 DRAWDOWN WILL BE SAVED ON UNIT   52 AT END OF TIME STEP   98, STRESS PERIOD    3
1
  VOLUMETRIC BUDGET FOR ENTIRE MODEL AT END OF TIME STEP   98, STRESS PERIOD   3
  ------------------------------------------------------------------------------

     CUMULATIVE VOLUMES      L**3       RATES FOR THIS TIME STEP      L**3/T
     ------------------                 ------------------------

           IN:                                      IN:
           ---                                      ---
             STORAGE =      165017.9531               STORAGE =         972.9611
       CONSTANT HEAD =       69797.2656         CONSTANT HEAD =           0.0000
               WELLS =       79400.0000                 WELLS =         600.0000
       RIVER LEAKAGE =      211534.9844         RIVER LEAKAGE =           0.0000

            TOTAL IN =      525750.1875              TOTAL IN =        1572.9611

          OUT:                                     OUT:
          ----                                     ----
             STORAGE =      247768.9688               STORAGE =           0.0000
       CONSTANT HEAD =       50454.7539         CONSTANT HEAD =         962.0824
               WELLS =       65400.0000                 WELLS =         100.0000
       RIVER LEAKAGE =      162126.4375         RIVER LEAKAGE =         510.8784

           TOTAL OUT =      525750.1250             TOTAL OUT =        1572.9608

            IN - OUT =       6.2500E-02              IN - OUT =       2.4414E-04

 PERCENT DISCREPANCY =           0.00     PERCENT DISCREPANCY =           0.00






         TIME SUMMARY AT END OF TIME STEP   98 IN STRESS PERIOD    3
                    SECONDS     MINUTES      HOURS       DAYS        YEARS
                    -----------------------------------------------------------
   TIME STEP LENGTH  86400.      1440.0      24.000      1.0000     2.73785E-03
 STRESS PERIOD TIME 8.46720E+06 1.41120E+05  2352.0      98.000     0.26831    
         TOTAL TIME 1.71936E+07 2.86560E+05  4776.0      199.00     0.54483    
1
 
 SOLVING FOR HEAD 

 OUTPUT CONTROL FOR STRESS PERIOD    3   TIME STEP   99
    SAVE HEAD FOR ALL LAYERS
    SAVE DRAWDOWN FOR ALL LAYERS
    SAVE BUDGET
    PRINT HEAD FOR ALL LAYERS
    PRINT BUDGET
 UBDSV1 SAVING "         STORAGE" ON UNIT   1 AT TIME STEP 99, STRESS PERIOD   3
 UBDSV2 SAVING "   CONSTANT HEAD" ON UNIT   1 AT TIME STEP 99, STRESS PERIOD   3
 UBDSV1 SAVING "FLOW RIGHT FACE " ON UNIT   1 AT TIME STEP 99, STRESS PERIOD   3
 UBDSV1 SAVING "FLOW FRONT FACE " ON UNIT   1 AT TIME STEP 99, STRESS PERIOD   3
1
              HEAD IN LAYER   1 AT END OF TIME STEP  99 IN STRESS PERIOD    3
  ---------------------------------------------------------------------------

            1           2           3           4           5           6           7           8           9          10
           11          12          13          14          15
 ........................................................................................................................
   1    1.050       1.050       1.050       1.050       1.050       1.050       1.050       1.050       1.050       1.050    
        1.050       1.050       1.050       1.050       1.050    
   2    1.716       1.697       1.665       1.640       1.680       1.726       1.753       1.744       1.696       1.696    
        1.705       1.711       1.706       1.694       1.686    
   3    2.182       2.140       2.053       1.948       2.085       2.202       2.268       2.279       2.239       2.253    
        2.284       2.304       2.286       2.256       2.235    
   4    2.504       2.442       2.274       1.826       2.322       2.537       2.644       2.688       2.680       2.724    
        2.802       2.864       2.809       2.736       2.693    
   5    2.732       2.692       2.611       2.518       2.673       2.816       2.918       2.985       3.011       3.103    
        3.275       3.478       3.287       3.127       3.048    
   6    2.867       2.851       2.826       2.822       2.897       2.994       3.084       3.163       3.214       3.348    
        3.662       4.426       3.679       3.384       3.271    
   7    2.910       2.907       2.909       2.930       2.985       3.059       3.138       3.216       3.267       3.368    
        3.547       3.756       3.570       3.413       3.336    
   8    2.865       2.870       2.883       2.910       2.958       3.021       3.091       3.163       3.206       3.272    
        3.365       3.439       3.392       3.325       3.285    
   9    2.746       2.753       2.768       2.796       2.838       2.893       2.959       3.029       3.071       3.117    
        3.171       3.208       3.201       3.177       3.160    
  10    2.565       2.572       2.586       2.610       2.646       2.693       2.753       2.828       2.885       2.926    
        2.966       2.993       3.000       2.995       2.990    
  11    2.340       2.345       2.355       2.373       2.398       2.433       2.484       2.563       2.666       2.715    
        2.752       2.777       2.788       2.791       2.791    
  12    2.189       2.192       2.199       2.211       2.228       2.252       2.286       2.335       2.436       2.498    
        2.533       2.555       2.567       2.573       2.574    
  13    2.133       2.135       2.141       2.149       2.162       2.178       2.201       2.228       2.261       2.294    
        2.317       2.331       2.340       2.344       2.346    
  14    2.072       2.074       2.077       2.082       2.089       2.097       2.108       2.119       2.124       2.135    
        2.144       2.151       2.155       2.157       2.158    
  15    2.009       2.010       2.010       2.011       2.012       2.013       2.014       2.014       2.014       2.015    
        2.015       2.016       2.016       2.016       2.016    
  16    2.037       2.039       2.043       2.049       2.054       2.057       2.054       2.048       2.042       2.037    
        2.033       2.030       2.028       2.026       2.026    
  17    2.063       2.067       2.075       2.086       2.098       2.106       2.097       2.082       2.069       2.058    
        2.049       2.043       2.039       2.036       2.035    
  18    2.085       2.090       2.102       2.121       2.147       2.172       2.144       2.115       2.092       2.075    
        2.063       2.054       2.048       2.044       2.042    
  19    2.100       2.107       2.123       2.149       2.195       2.292       2.192       2.142       2.110       2.088    
        2.073       2.062       2.054       2.049       2.047    
  20    2.108       2.116       2.133       2.158       2.193       2.224       2.189       2.150       2.118       2.095    
        2.078       2.066       2.058       2.052       2.050    

 HEAD WILL BE SAVED ON UNIT   51 AT END OF TIME STEP   99, STRESS PERIOD    3

 DRAWDOWN WILL BE SAVED ON UNIT   52 AT END OF TIME STEP   99, STRESS PERIOD    3
1
  VOLUMETRIC BUDGET FOR ENTIRE MODEL AT END OF TIME STEP   99, STRESS PERIOD   3
  ------------------------------------------------------------------------------

     CUMULATIVE VOLUMES      L**3       RATES FOR THIS TIME STEP      L**3/T
     ------------------                 ------------------------

           IN:                                      IN:
           ---                                      ---
             STORAGE =      165992.3750               STORAGE =         974.4207
       CONSTANT HEAD =       69797.2656         CONSTANT HEAD =           0.0000
               WELLS =       80000.0000                 WELLS =         600.0000
       RIVER LEAKAGE =      211534.9844         RIVER LEAKAGE =           0.0000

            TOTAL IN =      527324.6250              TOTAL IN =        1574.4207

          OUT:                                     OUT:
          ----                                     ----
             STORAGE =      247768.9688               STORAGE =           0.0000
       CONSTANT HEAD =       51423.5625         CONSTANT HEAD =         968.8068
               WELLS =       65500.0000                 WELLS =         100.0000
       RIVER LEAKAGE =      162632.0469         RIVER LEAKAGE =         505.6126

           TOTAL OUT =      527324.5625             TOTAL OUT =        1574.4194

            IN - OUT =       6.2500E-02              IN - OUT =       1.2207E-03

 PERCENT DISCREPANCY =           0.00     PERCENT DISCREPANCY =           0.00






         TIME SUMMARY AT END OF TIME STEP   99 IN STRESS PERIOD    3
                    SECONDS     MINUTES      HOURS       DAYS        YEARS
                    -----------------------------------------------------------
   TIME STEP LENGTH  86400.      1440.0      24.000      1.0000     2.73785E-03
 STRESS PERIOD TIME 8.55360E+06 1.42560E+05  2376.0      99.000     0.27105    
         TOTAL TIME 1.72800E+07 2.88000E+05  4800.0      200.00     0.54757    
1
 
 SOLVING FOR HEAD 

 OUTPUT CONTROL FOR STRESS PERIOD    3   TIME STEP  100
    SAVE HEAD FOR ALL LAYERS
    SAVE DRAWDOWN FOR ALL LAYERS
    SAVE BUDGET
    PRINT HEAD FOR ALL LAYERS
    PRINT BUDGET
 UBDSV1 SAVING "         STORAGE" ON UNIT   1 AT TIME STEP100, STRESS PERIOD   3
 UBDSV2 SAVING "   CONSTANT HEAD" ON UNIT   1 AT TIME STEP100, STRESS PERIOD   3
 UBDSV1 SAVING "FLOW RIGHT FACE " ON UNIT   1 AT TIME STEP100, STRESS PERIOD   3
 UBDSV1 SAVING "FLOW FRONT FACE " ON UNIT   1 AT TIME STEP100, STRESS PERIOD   3
1
              HEAD IN LAYER   1 AT END OF TIME STEP 100 IN STRESS PERIOD    3
  ---------------------------------------------------------------------------

            1           2           3           4           5           6           7           8           9          10
           11          12          13          14          15
 ........................................................................................................................
   1    1.000       1.000       1.000       1.000       1.000       1.000       1.000       1.000       1.000       1.000    
        1.000       1.000       1.000       1.000       1.000    
   2    1.672       1.653       1.621       1.596       1.636       1.682       1.708       1.700       1.651       1.651    
        1.660       1.666       1.660       1.649       1.641    
   3    2.144       2.102       2.015       1.909       2.046       2.163       2.228       2.239       2.199       2.213    
        2.243       2.264       2.246       2.215       2.194    
   4    2.471       2.409       2.240       1.792       2.288       2.503       2.610       2.653       2.644       2.689    
        2.766       2.828       2.773       2.700       2.657    
   5    2.704       2.664       2.583       2.490       2.644       2.786       2.888       2.954       2.980       3.071    
        3.243       3.447       3.255       3.095       3.016    
   6    2.844       2.828       2.803       2.798       2.873       2.968       3.058       3.136       3.187       3.320    
        3.634       4.398       3.651       3.356       3.242    
   7    2.891       2.888       2.890       2.910       2.965       3.038       3.116       3.193       3.243       3.344    
        3.523       3.732       3.546       3.389       3.311    
   8    2.850       2.855       2.867       2.895       2.941       3.003       3.073       3.144       3.187       3.252    
        3.345       3.418       3.371       3.304       3.264    
   9    2.734       2.741       2.757       2.784       2.826       2.880       2.944       3.013       3.055       3.100    
        3.154       3.191       3.184       3.160       3.142    
  10    2.557       2.564       2.578       2.602       2.637       2.683       2.743       2.817       2.873       2.913    
        2.952       2.980       2.986       2.981       2.976    
  11    2.335       2.340       2.351       2.368       2.393       2.428       2.477       2.555       2.657       2.705    
        2.742       2.766       2.778       2.780       2.780    
  12    2.186       2.190       2.197       2.208       2.225       2.249       2.282       2.331       2.431       2.491    
        2.526       2.548       2.560       2.565       2.567    
  13    2.131       2.134       2.139       2.147       2.160       2.176       2.198       2.225       2.258       2.291    
        2.313       2.327       2.335       2.340       2.341    
  14    2.071       2.073       2.076       2.081       2.087       2.096       2.107       2.118       2.123       2.133    
        2.142       2.149       2.153       2.155       2.156    
  15    2.009       2.010       2.010       2.011       2.012       2.013       2.014       2.014       2.014       2.015    
        2.015       2.015       2.016       2.016       2.016    
  16    2.037       2.039       2.043       2.048       2.054       2.057       2.054       2.048       2.042       2.037    
        2.033       2.030       2.027       2.026       2.025    
  17    2.063       2.067       2.074       2.085       2.098       2.106       2.096       2.082       2.068       2.057    
        2.049       2.043       2.038       2.036       2.034    
  18    2.084       2.090       2.102       2.121       2.147       2.172       2.144       2.115       2.092       2.075    
        2.063       2.054       2.047       2.044       2.042    
  19    2.100       2.107       2.123       2.149       2.195       2.291       2.191       2.142       2.110       2.088    
        2.073       2.061       2.054       2.049       2.047    
  20    2.108       2.116       2.132       2.158       2.193       2.224       2.188       2.149       2.118       2.095    
        2.078       2.066       2.057       2.052       2.050    

 HEAD WILL BE SAVED ON UNIT   51 AT END OF TIME STEP  100, STRESS PERIOD    3

 DRAWDOWN WILL BE SAVED ON UNIT   52 AT END OF TIME STEP  100, STRESS PERIOD    3
1
  VOLUMETRIC BUDGET FOR ENTIRE MODEL AT END OF TIME STEP  100, STRESS PERIOD   3
  ------------------------------------------------------------------------------

     CUMULATIVE VOLUMES      L**3       RATES FOR THIS TIME STEP      L**3/T
     ------------------                 ------------------------

           IN:                                      IN:
           ---                                      ---
             STORAGE =      166968.2188               STORAGE =         975.8453
       CONSTANT HEAD =       69797.2656         CONSTANT HEAD =           0.0000
               WELLS =       80600.0000                 WELLS =         600.0000
       RIVER LEAKAGE =      211534.9844         RIVER LEAKAGE =           0.0000

            TOTAL IN =      528900.5000              TOTAL IN =        1575.8453

          OUT:                                     OUT:
          ----                                     ----
             STORAGE =      247768.9688               STORAGE =           0.0000
       CONSTANT HEAD =       52399.0625         CONSTANT HEAD =         975.4992
               WELLS =       65600.0000                 WELLS =         100.0000
       RIVER LEAKAGE =      163132.3906         RIVER LEAKAGE =         500.3472

           TOTAL OUT =      528900.4375             TOTAL OUT =        1575.8464

            IN - OUT =       6.2500E-02              IN - OUT =      -1.0986E-03

 PERCENT DISCREPANCY =           0.00     PERCENT DISCREPANCY =          -0.00






         TIME SUMMARY AT END OF TIME STEP  100 IN STRESS PERIOD    3
                    SECONDS     MINUTES      HOURS       DAYS        YEARS
                    -----------------------------------------------------------
   TIME STEP LENGTH  86400.      1440.0      24.000      1.0000     2.73785E-03
 STRESS PERIOD TIME 8.64000E+06 1.44000E+05  2400.0      100.00     0.27379    
         TOTAL TIME 1.73664E+07 2.89440E+05  4824.0      201.00     0.55031    
1

 Run end date and time (yyyy/mm/dd hh:mm:ss): 2024/02/26 19:50:44
 Elapsed run time:  0.300 Seconds

